<?xml version="1.0" encoding="UTF-8"?>

<!-- generated on 2024-11-11 18:03:37.096107 by randomTrips.py v1_20_0+2102-a708d317aaa
<configuration>
    <net-file value="Roc.net.xml"/>
    <route-file value="cars.rou.xml"/>
    <trip-attributes value="type=&quot;car&quot; departSpeed=&quot;max&quot; departLane=&quot;best&quot;"/>
    <length value="True"/>
    <end value="1000.0"/>
    <period value="1.4"/>
</configuration>
-->

<!-- generated on 2024-11-11 18:03:36 by Eclipse SUMO duarouter Version 1.20.0
<configuration xmlns:xsi="http://www.w3.org/2001/XMLSchema-instance" xsi:noNamespaceSchemaLocation="http://sumo.dlr.de/xsd/duarouterConfiguration.xsd">

    <input>
        <net-file value="Roc.net.xml"/>
        <route-files value="trips.trips.xml"/>
    </input>

    <output>
        <output-file value="cars.rou.xml"/>
        <alternatives-output value="NUL"/>
    </output>

    <time>
        <begin value="0"/>
        <end value="1000.0"/>
    </time>

    <report>
        <no-warnings value="true"/>
        <ignore-errors value="true"/>
        <no-step-log value="true"/>
    </report>

</configuration>
-->

<routes xmlns:xsi="http://www.w3.org/2001/XMLSchema-instance" xsi:noNamespaceSchemaLocation="http://sumo.dlr.de/xsd/routes_file.xsd">
    <vType id="car" accel="2.6" decel="4.5" sigma="0.5" length="5" minGap="2.5" maxSpeed="50" color="1,1,0"/>
    <vehicle id="0" type="car" depart="0.00" departLane="best" departSpeed="max">
        <route edges="20124217#2 -20124217#2 -20124217#1 -20124217#0 -15276248#3 -15276248#2 -15276248#1 -207079110#27 -207079110#25 -207079110#24 -207079110#23 -207079110#22 -207079110#21 -207079110#20 -207079110#19 -207079110#18 -207079110#17 -207079110#16 -207079110#15 -207079110#14 -207079110#13 -207079110#12 -207079110#11 -207079110#10 -207079110#9 -207079110#8 -207079110#7 -207079110#6 -207079110#4 -207079110#3 -207079110#2 -207079110#1 -672778969#5 -672778969#4 -672778969#3 -672778969#2 -672778969#1 -672778969#0 -207079112 -672778988#3 -672778988#2 -672778988#1 -19930577#5 -19930577#4 -19930577#3 -19930577#2 -19930577#1 -672779006 20110142#1 20110142#2 20110142#3 20110142#4 109197319#0 109197319#1 109197319#2 1308547645#1 21232573#0 21232573#1 21232573#2 21232573#3 21232573#4 21232573#5 21232573#6 21232573#7 21232573#8 21232573#10 21232573#11 21232573#12 21232573#13 21232573#14 21232573#15 21232573#16 21232573#17 21232573#18 262898540 1098370045 672778981#0 672778981#1 262898541#1 1098370043#0 1098370043#1 672778975#0 672778975#1 672778975#2 -379738160#3 -379738160#2 -379738160#1 -379738160#0 -1098370049#1 -1098370048#1 -1098370048#0 1098370050 1011944413#0 1098370051 -1011944411#1 -1011944411#0 1092059229#0 1092059229#1 1092059229#2 -674154677 23704218#0 23704218#1 -23704217 124086106#1 124086106#2 124086106#3 124086106#4 124086106#5 124086106#6 124086106#7 124086106#8 124086106#9 124086106#10 124086106#11 124086106#12 124086106#13 -124086106#13 -124086106#12"/>
    </vehicle>
    <vehicle id="1" type="car" depart="1.40" departLane="best" departSpeed="max">
        <route edges="-20141568#0 -20124217#4 -20124217#3 -20124217#2 -20131827#1 -20131827#0 -20136506#1"/>
    </vehicle>
    <vehicle id="2" type="car" depart="2.80" departLane="best" departSpeed="max">
        <route edges="20140241#0 -20140241#0 -20138341#0 -20135107#3 -20135107#2 -20135107#1 -20135107#0 207079110#24 207079110#25 207079110#27 15276248#1 15276248#2 15276248#3 20124217#0 20124217#1 20124217#2 20124217#3 20124217#4 20124217#5 20124217#6 20124217#7 20124217#8 20133107"/>
    </vehicle>
    <vehicle id="3" type="car" depart="4.20" departLane="best" departSpeed="max">
        <route edges="413399527#2 413399527#3 1308529313 -413399529#1 -413399520 -1308529314#1 -1308529314#0 -1026226755#3 -1026226755#2 -1026226755#1 -1026226755#0 -1026226756 -15276248#11"/>
    </vehicle>
    <vehicle id="4" type="car" depart="5.60" departLane="best" departSpeed="max">
        <route edges="-70260003#2 40597180#1 40597180#2 40597178#2 40597178#3 40597178#4 40597178#5 40597178#6 40597178#8 40597178#9 1308529317#0 1308529317#1 41163311 41163310#2 41163309 -41163298#4 -41163298#3 -41163298#2 -41163298#1 -41163298#0 -672778976#2 -672778976#1 -379738160#3 -379738160#2 -379738160#1 -379738160#0 -1098370049#1 -1098370048#1 -1098370048#0 1098370050 1011944413#0 1098370051 -1011944411#1 -1011944411#0 1092059229#0 1092059229#1 1092059229#2 -674154677 23704218#0 23704218#1 -23704217 124086106#1 124086106#2 124086106#3 124086106#4 124086106#5 124086106#6 124086106#7 124086106#8 124086106#9 124086106#10 124086106#11 124086106#12 124086106#13 -124086106#13 -124086106#12"/>
    </vehicle>
    <vehicle id="5" type="car" depart="7.00" departLane="best" departSpeed="max">
        <route edges="-20131275#0 21232562#2 21232562#3 21232562#4 21232562#5 21232562#6 21232562#7 674166074#0 674166074#1 674166074#2 674166074#3 674166074#4 674166074#6 1308660492#0 1308660492#1 1308660492#2 1308660492#3 1308660492#4 1308660492#5 -1272953149#0 -1272953148 -674166076#1 -674166076#0 -674166075#3 -674166075#2 -674166075#0 -709995751 -713043015#1 -713043015#0 -684945617 -15089737 139602835#0"/>
    </vehicle>
    <vehicle id="6" type="car" depart="8.40" departLane="best" departSpeed="max">
        <route edges="-124086106#12 -124086106#11 -124086106#10 -124086106#9 -124086106#8 -124086106#7 -124086106#6 -124086106#5 -124086106#4 -124086106#3 -124086106#2 -124086106#1 23704217 -23704218#1 606996259 290089185#0 290089185#1 -1098370053#1 -1098370053#0 -674154676#2 -674154676#1 -674154676#0 -390634953#14 -390634953#13 -390634953#12 -390634953#11 -390634953#10 -390634953#9 -390634953#8 -390634953#7 20130842 -20130842"/>
    </vehicle>
    <vehicle id="7" type="car" depart="9.80" departLane="best" departSpeed="max">
        <route edges="20125860#3 20125860#4 20125860#5 20125860#6 678006257#2 678006257#3 678006257#4 23704217 -23704218#1 -23704218#0 674154677 379738164#0 379738164#1 1011944411#0 1011944411#1 1098370052 1011944410#1 1098370048#0 1098370048#1 1098370049#1 379738160#0 379738160#1 379738160#2 379738160#3 -672778975#2 -672778975#1 -672778975#0 -1098370043#1 -1098370043#0 -262898541#1 -672778981#1 -672778981#0 -1098370045 -262898540 -21232573#18 -21232573#17 -21232573#16 -21232573#15 -21232573#14 -21232573#13 -21232573#12 -21232573#11 -21232573#10 -21232573#8 -21232573#7 -21232573#6 -21232573#5 -21232573#4 -21232573#3 -21232573#2 -21232573#1 -21232573#0 -1308547645#1 23703752 23703755#0 23703755#1 23703755#2 23703754 20110142#2 20110142#3 20110142#4"/>
    </vehicle>
    <vehicle id="8" type="car" depart="11.20" departLane="best" departSpeed="max">
        <route edges="-20131567#2 -20131567#1 -20131567#0 -413399527#0 -674154668#1 -674154668#0 -413399528#1 1098370037#1 1098370037#2 15179098#0 15179098#1 1308529306#0 1308529306#1 1308529308 1098370038 672778973#0 672778973#1 672778973#2 1050092516#0 1050092516#1 -22873072#4 -22873072#3 -22873072#2 -22873072#1 -22873072#0 -264212543 -20118480#14 -20118480#13 -20118480#12 -20118480#11 -20118480#10 -20118480#8 -20118480#7 20118480#7 20118480#8 20118480#10 20118480#11 20118480#12 20118480#13 20118480#14"/>
    </vehicle>
    <vehicle id="9" type="car" depart="12.60" departLane="best" departSpeed="max">
        <route edges="301941898#0 301941898#1 301941898#2 -301941898#2 -301941898#1 -301941898#0 -124086106#11 -124086106#10 -124086106#9 -124086106#8 -124086106#7 -124086106#6 -124086106#5 -124086106#4 -124086106#3 -124086106#2 -124086106#1 23704217 -23704218#1 -23704218#0 674154677 379738164#0 379738164#1 1011944411#0 1011944411#1 1098370052 1011944410#1 1098370048#0 1098370048#1 1098370049#1 379738160#0 379738160#1 379738160#2 379738160#3 -672778975#2 -672778975#1 -672778975#0 -1098370043#1 -1098370043#0 -262898541#1 -1098370042#1 -1098370042#0 -672778980 1098370041 1308547644 -1308547644 -1098370041"/>
    </vehicle>
    <vehicle id="10" type="car" depart="14.00" departLane="best" departSpeed="max">
        <route edges="295873622#0 295873622#1 295873622#2 295873622#3 295873622#4 295873622#5 379738162#0 379738162#1 379738162#2 379738162#3 379738162#4 379738162#5 379738162#6 379738162#7 379738162#8 379738162#9 379738162#10 379738162#11 379738162#12 379738162#13 379738162#14 379738162#15 379738162#16 1299132462#2 312525369#14 312525369#15 312525369#16 312525369#17 312525369#18 312525369#19 312525369#20 312525369#22 312525369#23 312525369#24 312525369#25 312525369#27 312525369#28 312525369#29 312525369#30 312525369#31 672779006 23703756#1 23703756#2 23703756#3 23703756#4 1308307324 109197314 1249554752#0 1249554753#0 1249554753#1 1308307325#0 1308307325#1 20136559#1 20136552#27 20136552#28 20136552#30 20136552#31 20136552#32 20136552#33"/>
    </vehicle>
    <vehicle id="11" type="car" depart="15.40" departLane="best" departSpeed="max">
        <route edges="-390634953#9 -390634953#8 -390634953#7 -390634953#6 -390634953#5 -390634953#4 -390634953#3 -390634953#2 -390634953#1 -390634953#0 -139456715#13 -139456715#12 20128815#0 -20125037#1"/>
    </vehicle>
    <vehicle id="12" type="car" depart="16.80" departLane="best" departSpeed="max">
        <route edges="674166094#2 674166094#3 674166094#4 674166094#5 674166094#6 674166094#7 -674166094#7 -674166094#6 -674166094#5 -674166094#4 -674166094#3 -674166094#2 -613230853#1 -613230853#0"/>
    </vehicle>
    <vehicle id="13" type="car" depart="18.20" departLane="best" departSpeed="max">
        <route edges="-180126048#0 -1249554756#1 -1249554756#0 674154676#1 674154676#2 1098370053#0 1098370053#1 1098370053#2 1098370053#3 19930576#1 19930576#2 19930576#3 19930576#5 -19930576#5 -19930576#3"/>
    </vehicle>
    <vehicle id="14" type="car" depart="19.60" departLane="best" departSpeed="max">
        <route edges="38654510 23746982 23746979#0 23746978 20110706 36924527 918041687 918041688#0 713043015#0 713043015#1 709995751 674166075#0 674166075#2 674166075#3 674166076#0 674166076#1 1272953148 1272953149#0 301941885#1 918041652 742157335#0 742157335#1 20121026#0 67044824 20121037#1"/>
    </vehicle>
    <vehicle id="15" type="car" depart="21.00" departLane="best" departSpeed="max">
        <route edges="301941889#12 301941889#13 301941889#14 301941889#15 301941889#16 301941889#17 -301941889#3 -301941889#2 -301941889#0 -593517664#7 -593517664#6 -593517664#5 -593517664#4 -593517664#3 -593517664#2 -593517664#1 -593517664#0 15089737 684945617 713043015#0 713043015#1 709995751 -138849679#7 -138849679#6 -138849679#5 -138849679#4 -138849679#3 -138849679#2 -138849679#1 -138849679#0 873400969 873400966#6 873400966#7 873400966#0 873400966#1 873400966#2 873400968 -674166078#1 -674166078#0 -20129262#5 -20129262#4 -20129262#3 -20129262#2 -20129262#1 -20129262#0 -674166079#5 -674166079#4 -674166079#3 -674166079#2 -674166079#1 674166077#1 -1308529312#14 -1308529312#13 -1308529312#11 -1308529312#10 -1308529312#9 -1308529312#8 -1308529312#7 -1308529312#6 -1308529312#5 -1308529312#3 -1308529312#2 -1308529312#1 -207079110#27 -207079110#25 -207079110#24 207079110#24 207079110#25"/>
    </vehicle>
    <vehicle id="16" type="car" depart="22.40" departLane="best" departSpeed="max">
        <route edges="1308529312#7 1308529312#8 1308529312#9 1308529312#10 1308529312#11 1308529312#13 1308529312#14 -674166077#1 -542123160#2 -542123160#1 -542123160#0 -542123162#6 -542123162#5 -542123162#4 -542123162#3 -542123162#2 -542123162#0 -1308660491#4 -1308660491#3 -1308660491#2 -1308660491#1 301941885#1 918041652 742157335#0 742157335#1 742157335#2 742157335#3 742157335#4 742157335#5 742157335#6 742157335#7 742157335#8 742157335#9 742157335#10 742157335#11 742157335#12 742157335#13 742157335#14 742157335#15 742157335#16"/>
    </vehicle>
    <vehicle id="17" type="car" depart="23.80" departLane="best" departSpeed="max">
        <route edges="-613230853#1 -613230853#0 613230853#0 613230853#1 -674166094#0 -674166091 -613231512 -674166093#1 -674166093#0 20133901#1 761611462 674166092#0 674166092#1 674166092#2 674166092#3 674166092#4 674166092#5 674166092#6 674166092#7 674166092#8 674166092#9 674166092#10 674166092#11 674166092#12 674166092#13 674166092#14 674166092#16 674166092#17 674166092#18 15089737 684945617 713043015#0 268394234#1 268394234#2 671892434 20110447 236837931 236837930#0 236837930#1 236837929#0 236837929#1 20110546"/>
    </vehicle>
    <vehicle id="18" type="car" depart="25.20" departLane="best" departSpeed="max">
        <route edges="38173708 1204268691 1204268690 648086229 323059478 947989180 23746975 36924509 36924531 23746977 23746970 20110449 36924394 36924527 918041687 918041688#0 713043015#0 713043015#1 709995751 674166075#0 674166075#2 674166075#3 674166076#0 674166076#1 1272953148 1272953149#0 301941885#1 918041652 742157335#0 742157335#1 742157335#2 -20124217#12 -20124217#11 -20124217#10 -20124217#9 -20124217#8 -20124217#7 -20124217#6 -20124217#5 -20124217#4 -20124217#3 20124217#3"/>
    </vehicle>
    <vehicle id="20" type="car" depart="28.00" departLane="best" departSpeed="max">
        <route edges="20133768#10 20133768#11 742157335#4 742157335#5 742157335#6 742157335#7 742157335#8 742157335#9 742157335#10 742157335#11 742157335#12 742157335#13 742157335#14 742157335#15 742157335#16 742157335#17 742157335#18 139456715#0 139456715#1 139456715#2 139456715#4 139456715#5 139456715#6 139456715#7 139456715#8 139456715#9 139456715#10 139456715#11 139456715#12 139456715#13 390634953#0 390634953#1 390634953#2 390634953#3 390634953#4 390634953#5 390634953#6 390634953#7 390634953#8 390634953#9 390634953#10 390634953#11 390634953#12 390634953#13 390634953#14 674154676#0 674154676#1 674154676#2 1098370053#0 1098370053#1 1098370053#2 1098370053#3 -674154677 23704218#0 23704218#1 -23704217 124086106#1 124086106#2 124086106#3 124086106#4 124086106#5 124086106#6 124086106#7 124086106#8 -124086106#8"/>
    </vehicle>
    <vehicle id="21" type="car" depart="29.40" departLane="best" departSpeed="max">
        <route edges="-20133107 -20124217#8 -20124217#7 -20124217#6 -20124217#5 -20124217#4 -20124217#3 -20124217#2 -20124217#1 -20124217#0 -15276248#3 -15276248#2 -15276248#1 -207079110#27 -207079110#25 -207079110#24 -207079110#23 -207079110#22 -207079110#21 -207079110#20 -207079110#19 -207079110#18 -207079110#17 -207079110#16 -207079110#15 -207079110#14 -207079110#13 -207079110#12 -207079110#11 -207079110#10 -207079110#9 -207079110#8 -207079110#7 -207079110#6 -207079110#4 -207079110#3 -207079110#2 -207079110#1 -672778969#5 -672778969#4 -672778969#3 -672778969#2 -672778969#1 -672778969#0 -207079112 -672778988#3 -672778988#2 -672778988#1 -19930577#5 -19930577#4 -19930577#3 -19930577#2 -19930577#1 -672779006 -312525369#31 -312525369#30 -312525369#29 -312525369#28 -312525369#27 -312525369#25 -312525369#24 -312525369#23 -312525369#22 -312525369#20 -312525369#19 -312525369#18 -312525369#17 -312525369#16 -312525369#15 -312525369#14 -312525369#13"/>
    </vehicle>
    <vehicle id="22" type="car" depart="30.80" departLane="best" departSpeed="max">
        <route edges="-15089727#1 -1308529303#1 -1308529303#0 1098370047 180126049 1098370046#0 1098370049#1 379738160#0 379738160#1 379738160#2 379738160#3 -672778975#2 -672778975#1 -672778975#0 -1098370043#1 -1098370043#0 -262898541#1 -672778981#1 -672778981#0 -1098370045 -262898540 -21232573#18 -21232573#17 -21232573#16 -21232573#15 -21232573#14 -21232573#13 -21232573#12 -21232573#11 -21232573#10 -21232573#8 -21232573#7 -21232573#6 -21232573#5 -21232573#4 -21232573#3 -21232573#2 -21232573#1 -21232573#0 -1308547645#1 23703752 23703755#0 23703755#1 23703755#2 23703755#3 19930577#1 19930577#2 19930577#3 19930577#4 19930577#5 672778988#1 672778988#2 672778988#3 207079112 672778969#0 672778969#1 672778969#2 672778969#3 672778969#4 672778969#5 207079110#1 207079110#2 207079110#3 207079110#4 207079110#6 207079110#7 207079110#8 207079110#9 207079110#10 207079110#11 207079110#12 207079110#13 207079110#14 207079110#15 207079110#16 207079110#17 207079110#18 207079110#19 207079110#20 207079110#21 207079110#22 207079110#23 207079110#24 207079110#25 207079110#27 1308529312#1 1308529312#2 1308529312#3 1308529312#5 1308529312#6 1308529312#7 1308529312#8 1308529312#9 1308529312#10 1308529312#11 1308529312#13 1308529312#14 -674166077#1 674166079#1 674166079#2 674166079#3 674166079#4 674166079#5 20136639#0 20136639#1 20136639#4 20136639#5 725755519 725755517#0 -725755517#0 -725755519 -20136639#5"/>
    </vehicle>
    <vehicle id="23" type="car" depart="32.20" departLane="best" departSpeed="max">
        <route edges="-19930576#5 -19930576#3 -19930576#2 -19930576#1 379738164#0 379738164#1 1011944411#0 1011944411#1 1098370052 1011944410#1 1098370048#0 1098370048#1 1098370049#1 379738160#0 379738160#1 379738160#2 379738160#3 -672778975#2 -672778975#1 -672778975#0 -1098370043#1 -1098370043#0 -262898541#1 -672778981#1 -672778981#0 -1098370045 -262898540 -21232573#18 -21232573#17 -21232573#16 -21232573#15"/>
    </vehicle>
    <vehicle id="24" type="car" depart="33.60" departLane="best" departSpeed="max">
        <route edges="20124217#0 -20124217#0 -15276248#3 -15276248#2 -15276248#1 1308529312#1 1308529312#2 1308529312#3 1308529312#5 1308529312#6 1308529312#7 1308529312#8 1308529312#9 1308529312#10 1308529312#11 1308529312#13 1308529312#14 -674166077#1 674166079#1 674166079#2 674166079#3 674166079#4 674166079#5 -674166079#5 -674166079#4 -674166079#3 -674166079#2"/>
    </vehicle>
    <vehicle id="25" type="car" depart="35.00" departLane="best" departSpeed="max">
        <route edges="-593517664#0 15089737 684945617 713043015#0 713043015#1 709995751 674166075#0 674166075#2 674166075#3 674166076#0 674166076#1 1272953148 1272953149#0 301941885#1 918041652 742157335#0 742157335#1 742157335#2 -20124217#12 -20124217#11 -20118788#3 -20118788#2 -20133107"/>
    </vehicle>
    <vehicle id="26" type="car" depart="36.40" departLane="best" departSpeed="max">
        <route edges="-20139496#2 -20139496#1 -20139496#0 1177772073 -1177772074#1 -15276248#7 -15276248#6 -15276248#5 -15276248#4 -15276248#3 -15276248#2 -15276248#1 -207079110#27 -207079110#25 -207079110#24 -207079110#23 -207079110#22 -207079110#21 -207079110#20 -207079110#19 -207079110#18 -207079110#17 -207079110#16 -207079110#15 -207079110#14 -207079110#13 -207079110#12 -207079110#11 -207079110#10 -207079110#9 -207079110#8 -207079110#7 -207079110#6 -207079110#4 -207079110#3 -207079110#2 -207079110#1 -672778969#5 -672778969#4 -672778969#3 -672778969#2 -672778969#1 -672778969#0 -207079112 -672778988#3 -672778988#2 -672778988#1 -19930577#5 -19930577#4 -19930577#3 -19930577#2 -19930577#1 23703756#1 23703756#2 23703756#3 23703756#4 1308307324 109197314 1249554752#0 1249554753#0 1249554753#1 1308307325#0 1308307325#1 15089792#0 15089792#2 672779042#0 672779042#1 672779042#2 672779042#3"/>
    </vehicle>
    <vehicle id="27" type="car" depart="37.80" departLane="best" departSpeed="max">
        <route edges="20125037#0 20125037#1 -20128815#0 139456715#12 139456715#13 -413399523#12 -413399523#11 -413399523#10 -413399523#9 -413399523#8 -413399523#7 -413399523#6 -413399523#5 -413399523#4 -413399523#3 -413399523#2 -413399523#1 -413399520 -1308529314#1 -1308529314#0 -1026226755#3 -1026226755#2 910676333#0 910676333#1 910676334 20133768#0 20133768#1 20133768#2 20133768#3 20122138#0"/>
    </vehicle>
    <vehicle id="28" type="car" depart="39.20" departLane="best" departSpeed="max">
        <route edges="-20124217#5 -20124217#4 -20124217#3 -20124217#2 -20124217#1 -20124217#0 -15276248#3 -15276248#2 -15276248#1 -207079110#27 -207079110#25 -207079110#24 -207079110#23 -207079110#22 -207079110#21 -207079110#20 -207079110#19 -207079110#18 -207079110#17 -207079110#16 -207079110#15 -207079110#14 -207079110#13 -207079110#12 207079110#12 207079110#13 207079110#14 207079110#15 207079110#16 207079110#17 207079110#18 207079110#19 207079110#20 207079110#21"/>
    </vehicle>
    <vehicle id="29" type="car" depart="40.60" departLane="best" departSpeed="max">
        <route edges="-20123316#1 20128723#0 20128723#1 678006257#4 23704217 -23704218#1 -23704218#0 674154677 379738164#0 379738164#1 1011944411#0 1011944411#1 1098370052 1011944410#1 1098370048#0 1098370048#1 1098370049#1 379738160#0 379738160#1 379738160#2 379738160#3 672778976#1 672778976#2 41163298#0 41163298#1 41163298#2 41163298#3 41163298#4 41163312 41163310#4 41163310#0 41163308 -1308529317#1 -1308529317#0 -40597178#9 -40597178#8 -40597178#6 -40597178#5 -40597178#4 -40597178#3 -40597178#2 -40597178#1 -1308547638 -1308547637 -1308547636#2 -1308547636#1 -1308547636#0 -70262164"/>
    </vehicle>
    <vehicle id="30" type="car" depart="42.00" departLane="best" departSpeed="max">
        <route edges="910676331 -910676331 -20113104#1 -20113104#0 390634953#1 390634953#2 390634953#3 390634953#4 390634953#5 390634953#6 390634953#7 390634953#8 390634953#9 390634953#10 390634953#11 390634953#12 390634953#13 390634953#14 674154676#0 674154676#1 674154676#2 1098370053#0 1098370053#1 1098370053#2 1098370053#3 379738164#0 379738164#1 1011944411#0 1011944411#1 1098370052 1011944410#1 1098370048#0 1098370048#1 1098370049#1 379738160#0 379738160#1 379738160#2 379738160#3 -672778975#2 -672778975#1 -672778975#0 -1098370043#1 -1098370043#0 -262898541#1 -672778981#1 -672778981#0 -1098370045 -262898540 -21232573#18 -21232573#17 -21232573#16 -21232573#15 -21232573#14 -21232573#13 -21232573#12 -21232573#11 -21232573#10 -21232573#8 -21232573#7 -21232573#6 -21232573#5 -21232573#4 -21232573#3 -21232573#2 -21232573#1 -21232573#0 -1308547645#1 23703752 672778982 109197317 23703852 23703850 672779005 109197314 1249554752#0 20128453#1 20128453#2 20128453#3 20128453#4 20128453#5 20128453#6 20128453#7 20128453#8 20128453#9 20128453#11 20128453#12 20128453#13 20128453#15 20128453#16 20128453#17 20128453#18 20128453#19 20128453#20"/>
    </vehicle>
    <vehicle id="31" type="car" depart="43.40" departLane="best" departSpeed="max">
        <route edges="15089727#5 15089727#6 1308529302#0 1308529302#1 1098370047 180126049 1098370046#0 1098370049#1 379738160#0 379738160#1 379738160#2 379738160#3 -672778975#2 -672778975#1 -672778975#0 -1098370043#1 -1098370043#0 -262898541#1 -672778981#1 -672778981#0 -1098370045 -262898540 -21232573#18 -21232573#17 -21232573#16 -21232573#15 -21232573#14 -21232573#13 -21232573#12 -21232573#11 -21232573#10 -21232573#8 -21232573#7 -21232573#6 -21232573#5 -21232573#4 -21232573#3 -21232573#2 -21232573#1 -21232573#0 -1308547645#1 23703752 23703755#0 23703755#1 23703755#2 23703755#3 19930577#1 19930577#2 19930577#3 19930577#4 19930577#5 672778988#1 672778988#2 672778988#3 207079112 672778969#0 672778969#1 672778969#2 672778969#3 672778969#4 672778969#5 207079110#1 207079110#2 207079110#3 207079110#4 207079110#6 207079110#7 207079110#8 207079110#9 207079110#10 207079110#11 207079110#12 207079110#13 207079110#14 207079110#15 207079110#16 207079110#17 207079110#18 207079110#19 207079110#20 207079110#21 207079110#22 207079110#23 20135107#0 20135107#1 20135107#2 20135107#3 20135107#4 20135107#5 20134269"/>
    </vehicle>
    <vehicle id="33" type="car" depart="46.20" departLane="best" departSpeed="max">
        <route edges="-20133107 20124217#9 20124217#10 20124217#11 20124217#12 742157335#3 742157335#4 742157335#5 742157335#6 742157335#7 742157335#8 742157335#9 742157335#10 742157335#11 742157335#12 742157335#13 742157335#14 742157335#15 742157335#16 742157335#17 742157335#18 139456715#0 139456715#1 139456715#2 139456715#4 139456715#5 139456715#6 139456715#7 139456715#8 139456715#9 139456715#10 139456715#11 139456715#12 139456715#13 390634953#0 390634953#1 390634953#2 390634953#3 390634953#4 390634953#5 390634953#6 390634953#7 390634953#8 390634953#9 390634953#10 390634953#11 390634953#12 390634953#13 390634953#14 674154676#0 674154676#1 674154676#2 1098370053#0 1098370053#1 1098370053#2 1098370053#3 -674154677 23704218#0 23704218#1 -23704217 124086106#1 124086106#2 124086106#3 124086106#4 124086106#5 124086106#6 124086106#7 124086106#8 124086106#9 124086106#10 124086106#11 124086106#12 124086106#13 -124086106#13 -124086106#12"/>
    </vehicle>
    <vehicle id="34" type="car" depart="47.60" departLane="best" departSpeed="max">
        <route edges="-317687854#1 -317687854#0 317681616#0 317681616#1 317681616#2 317681616#3 674166086 317687854#0 317687854#1 674166080 317687853 674166085 674166082 20131504#0 20131504#1 -674166091 -613231512 -674166093#1 -674166093#0 -725755517#0 -725755519 -20136639#5 -20136639#4 -20136639#1 -20136639#0 -674166079#5 -674166079#4 -674166079#3 -674166079#2 -674166079#1 -542123160#2 -542123160#1 -542123160#0 -542123162#6 -542123162#5 -542123162#4 -542123162#3 -542123162#2 -542123162#0 -1308660491#4 -1308660491#3 -1308660491#2 -1308660491#1 -1308660492#5 -1308660492#4 -1308660492#3 -1308660492#2 -1308660492#1 -1308660492#0 -674166074#6 -674166074#4 -674166074#3 -674166074#2 -674166074#1 -674166074#0 -21232562#7 -21232562#6 -21232562#5 -21232562#4 -21232562#3 -21232562#2 -21232562#1 -21232562#0 -1308529311 -21232557#16 -21232557#15"/>
    </vehicle>
    <vehicle id="35" type="car" depart="49.00" departLane="best" departSpeed="max">
        <route edges="-20130276#1 -20137631 742157335#3 742157335#4 742157335#5 742157335#6 742157335#7 742157335#8 742157335#9 742157335#10 742157335#11 742157335#12 742157335#13 742157335#14 742157335#15 742157335#16 742157335#17 742157335#18 139456715#0 139456715#1 139456715#2 139456715#4 139456715#5 139456715#6 139456715#7 139456715#8 139456715#9 139456715#10 139456715#11 139456715#12 139456715#13 390634953#0 390634953#1 390634953#2 390634953#3 390634953#4 390634953#5 390634953#6 390634953#7 390634953#8 390634953#9 390634953#10 390634953#11 390634953#12 390634953#13 390634953#14 674154676#0"/>
    </vehicle>
    <vehicle id="36" type="car" depart="50.40" departLane="best" departSpeed="max">
        <route edges="40597178#4 -40597178#4 -40597178#3 -40597178#2 -40597178#1 -1308547638 -1308529318 -1098370040#1 21232570 1308547642#0 1308547642#1 1308547642#2 1308547642#3 1308547642#4 674154671#0 413399528#1 674154668#0 674154668#1 413399527#0 413399527#1 413399527#2 413399527#3 1308529313 -413399529#1 413399523#1 413399523#2 413399523#3 413399523#4 413399523#5 413399523#6 413399523#7 -413399523#7 -413399523#6 -413399523#5"/>
    </vehicle>
    <vehicle id="37" type="car" depart="51.80" departLane="best" departSpeed="max">
        <route edges="20127334#5 -20127334#5 -20127334#4 -20127334#3 -20127334#2 -20127334#1 15276248#7 15276248#8 15276248#9 15276248#10 15276248#11 1026226756 1026226755#0 1026226755#1 1026226755#2 1026226755#3 1308529314#0 1308529314#1 413399520 -1095750599 -742448140#10 -742448140#9 -742448140#8 -742448140#7 -742448140#6 -742448140#5 -742448140#4 -742448140#3 -742448140#2 -742448140#1 -742448140#0 -15089739#9 -15089739#8 -15089739#7 -15089739#6 -15089739#5 -15089739#4 -15089739#3 -15089739#2 -750804181#2 -750804181#1 -750804181#0"/>
    </vehicle>
    <vehicle id="38" type="car" depart="53.20" departLane="best" departSpeed="max">
        <route edges="613230853#0 613230853#1 -674166094#0 -674166091 -613231512 -674166093#1 -674166093#0 -725755517#0 -725755519 -20136639#5 -20136639#4 -20136639#1 -20136639#0 -674166079#5 -674166079#4 -674166079#3 -674166079#2 -674166079#1 674166077#1 -1308529312#14 -1308529312#13 -1308529312#11 -1308529312#10 -1308529312#9 -1308529312#8 -1308529312#7 -1308529312#6 -1308529312#5 -1308529312#3 -1308529312#2 -1308529312#1 -207079110#27 -207079110#25 -207079110#24 -207079110#23 -207079110#22 -207079110#21 -207079110#20 -207079110#19 -207079110#18 -207079110#17 -207079110#16 -207079110#15 -207079110#14 -207079110#13 -207079110#12 -207079110#11 -207079110#10 -207079110#9 -207079110#8 -207079110#7 -207079110#6 -207079110#4 -207079110#3 -207079110#2 -207079110#1 -672778969#5 -672778969#4 -672778969#3 -672778969#2 -672778969#1 -672778969#0 -207079112 -672778988#3 -672778988#2 -672778988#1 -19930577#5 -19930577#4 -19930577#3 -19930577#2 -19930577#1 -672779006 20110142#1 20110142#2 20110142#3 20110142#4 109197319#0 109197319#1 109197319#2 1308547645#1 21232573#0 21232573#1 21232573#2 21232573#3 21232573#4 21232573#5 21232573#6 21232573#7 21232573#8 21232573#10 21232573#11 21232573#12 21232573#13 21232573#14 21232573#15 21232573#16 21232573#17 21232573#18 262898540 1098370045 672778981#0 672778981#1 262898541#1 1098370043#0 1098370043#1 672778975#0 672778975#1 672778975#2 -379738160#3 -379738160#2 -379738160#1 -379738160#0 -1098370049#1 -1098370048#1 -1098370048#0 1098370050 1011944413#0 1098370051 -1011944411#1 -1011944411#0 1092059229#0 1092059229#1 1092059229#2 -674154677 23704218#0 23704218#1 -23704217 124086106#1 124086106#2 124086106#3 124086106#4 124086106#5 124086106#6 124086106#7 124086106#8 124086106#9 124086106#10 124086106#11 124086106#12"/>
    </vehicle>
    <vehicle id="39" type="car" depart="54.60" departLane="best" departSpeed="max">
        <route edges="-20139496#0 1177772073 -1177772074#1 15276248#8 20116461#0 20116461#1 20116461#2 20116461#3 20122138#4 20124217#4 20124217#5 20140381#0 20140381#1 -20140381#1"/>
    </vehicle>
    <vehicle id="40" type="car" depart="56.00" departLane="best" departSpeed="max">