<?xml version="1.0" encoding="UTF-8"?>

<!-- generated on 2024-11-11 18:07:50.777443 by randomTrips.py v1_20_0+2102-a708d317aaa
<configuration>
    <net-file value="Roc.net.xml"/>
    <route-file value="peds.rou.xml"/>
    <trip-attributes value="type=&quot;pedestrian&quot; departSpeed=&quot;max&quot; departLane=&quot;best&quot;"/>
    <length value="True"/>
    <max-distance value="800.0"/>
    <end value="1000.0"/>
    <period value="1.4"/>
</configuration>
-->

<!-- generated on 2024-11-11 18:07:50 by Eclipse SUMO duarouter Version 1.20.0
<configuration xmlns:xsi="http://www.w3.org/2001/XMLSchema-instance" xsi:noNamespaceSchemaLocation="http://sumo.dlr.de/xsd/duarouterConfiguration.xsd">

    <input>
        <net-file value="Roc.net.xml"/>
        <route-files value="trips.trips.xml"/>
    </input>

    <output>
        <output-file value="peds.rou.xml"/>
        <alternatives-output value="NUL"/>
    </output>

    <time>
        <begin value="0"/>
        <end value="1000.0"/>
    </time>

    <report>
        <no-warnings value="true"/>
        <ignore-errors value="true"/>
        <no-step-log value="true"/>
    </report>

</configuration>
-->

<routes xmlns:xsi="http://www.w3.org/2001/XMLSchema-instance" xsi:noNamespaceSchemaLocation="http://sumo.dlr.de/xsd/routes_file.xsd">
    <vehicle id="0" type="pedestrian" depart="0.00" departLane="best" departSpeed="max">
        <route edges="413399527#2 413399527#3 1308529313 -413399529#1 -413399520 -1308529314#1 -1308529314#0 -1026226755#3 -1026226755#2 -1026226755#1 -1026226755#0 -1026226756 -15276248#11"/>
    </vehicle>
    <vehicle id="1" type="pedestrian" depart="1.40" departLane="best" departSpeed="max">
        <route edges="674166094#2 674166094#3 674166094#4 674166094#5 674166094#6 674166094#7 -674166094#7 -674166094#6 -674166094#5 -674166094#4 -674166094#3 -674166094#2 -613230853#1 -613230853#0"/>
    </vehicle>
    <vehicle id="2" type="pedestrian" depart="2.80" departLane="best" departSpeed="max">
        <route edges="-180126048#0 -1249554756#1 -1249554756#0 674154676#1 674154676#2 1098370053#0 1098370053#1 1098370053#2 1098370053#3 19930576#1 19930576#2 19930576#3 19930576#5 -19930576#5 -19930576#3"/>
    </vehicle>
    <vehicle id="3" type="pedestrian" depart="4.20" departLane="best" departSpeed="max">
        <route edges="20124217#0 -20124217#0 -15276248#3 -15276248#2 -15276248#1 1308529312#1 1308529312#2 1308529312#3 1308529312#5 1308529312#6 1308529312#7 1308529312#8 1308529312#9 1308529312#10 1308529312#11 1308529312#13 1308529312#14 -674166077#1 674166079#1 674166079#2 674166079#3 674166079#4 674166079#5 -674166079#5 -674166079#4 -674166079#3 -674166079#2"/>
    </vehicle>
    <vehicle id="4" type="pedestrian" depart="5.60" departLane="best" departSpeed="max">
        <route edges="76536995#3 76536995#4 76536995#5 76536995#6 76536995#7 76536995#8 1097875872 101081088#0 101081088#1 101081088#2 20124639#1 20124639#2 20124639#3 20124639#4 20124639#5 20124639#6 20124639#7 20124639#8 20124639#9 20124639#10 21224598 1097875868 19930608#0 19930608#1 19930608#2 19930608#3 -19930608#3 -19930608#2 -19930608#1 -19930608#0"/>
    </vehicle>
    <vehicle id="5" type="pedestrian" depart="7.00" departLane="best" departSpeed="max">
        <route edges="-674166074#1 -674166074#0 674166074#0 674166074#1 674166074#2 674166074#3 674166074#4 674166074#6 1308660492#0 1308660492#1 1308660492#2 1308660492#3 1308660492#4 1308660492#5 301941885#1 918041652 742157335#0 742157335#1 20121026#0 67044824 -67044824 -67044819#0"/>
    </vehicle>
    <vehicle id="6" type="pedestrian" depart="8.40" departLane="best" departSpeed="max">
        <route edges="926757301 911581869 605212556 323059471 20110160 23746974 23746972 36924509 36924531 23746977 23746970 20110449 36924394 36924527 918041687 918041688#0 713043015#0 268394234#1 268394234#2 671892434 20110447 236837931 236837930#0 236837930#1 236837929#0 236837929#1 236837928 605212555#1 323059505 926757300"/>
    </vehicle>
    <vehicle id="7" type="pedestrian" depart="9.80" departLane="best" departSpeed="max">
        <route edges="-20116461#3 -20116461#2 -20119047#1 -20119047#0 15276248#11 1026226756 1026226755#0 -20127978#6 -20127978#5 -20127978#4 -20127978#3 -20127978#2 -20127978#1 -20118794#5 -20116842"/>
    </vehicle>
    <vehicle id="8" type="pedestrian" depart="11.20" departLane="best" departSpeed="max">
        <route edges="-20118794#4 20127978#0 20127978#1 20127978#2 20127978#3 20127978#4 20127978#5 20127978#6 -1026226755#0 -1026226756 -15276248#11 20119047#0 -20119047#0"/>
    </vehicle>
    <vehicle id="9" type="pedestrian" depart="12.60" departLane="best" departSpeed="max">
        <route edges="-524116520 1036430344#4 1036430344#5 1036430344#0 1036430344#1 1036430345#0 1036430345#1 1036430345#2 1036430346 139456715#4 -139456715#4"/>
    </vehicle>
    <vehicle id="10" type="pedestrian" depart="14.00" departLane="best" departSpeed="max">
        <route edges="-312525369#25 -312525369#24 -312525369#23 -312525369#22 -312525369#20 -312525369#19 -312525369#18 -312525369#17 -312525369#16 -312525369#15 -312525369#14 -1299132462#2 -379738162#16 -379738162#15 379738162#15 379738162#16"/>
    </vehicle>
    <vehicle id="11" type="pedestrian" depart="15.40" departLane="best" departSpeed="max">
        <route edges="542123160#1 542123160#2 674166077#1 -1308529312#14 -1308529312#13 -1308529312#11 -1308529312#10 -1308529312#9 -1308529312#8 -1308529312#7 -1308529312#6 -1308529312#5 -1308529312#3 -1308529312#2 -1308529312#1 15276248#1 15276248#2 15276248#3 20124217#0 20124217#1"/>
    </vehicle>
    <vehicle id="12" type="pedestrian" depart="16.80" departLane="best" departSpeed="max">
        <route edges="-101081088#4 -101081088#3 20124639#1 20124639#2 20124639#3 20124639#4 20124639#5 20124639#6 20124639#7 20124639#8 20124639#9 20124639#10 21224598 1097875868 19930608#0 19930608#1 19930608#2 19930608#3 674154675 674154676#0 674154676#1 674154676#2 1098370053#0 1098370053#1 1098370053#2 1098370053#3 -674154677 23704218#0 23704218#1 -23704217 124086106#1 124086106#2 124086106#3 124086106#4 124086106#5 124086106#6 124086106#7 124086106#8 124086106#9 124086106#10 124086106#11 301941898#0 301941898#1 301941898#2 -301941898#2 -301941898#1 -301941898#0"/>
    </vehicle>
    <vehicle id="13" type="pedestrian" depart="18.20" departLane="best" departSpeed="max">
        <route edges="-15089739#9 -15089739#8 -15089739#7 -15089739#6 -15089739#5 -15089739#4 -15089739#3 -15089739#2 15089739#2 15089739#3 15089739#4 15089739#5 15089739#6"/>
    </vehicle>
    <vehicle id="14" type="pedestrian" depart="19.60" departLane="best" departSpeed="max">
        <route edges="20121037#18 20121037#0 -67044824 -67044819#0 -742157335#1 -742157335#0 -918041652 -301941885#1 -1308660492#5 -1308660492#4 -1308660492#3 -1308660492#2 -1308660492#1 -1308660492#0 -674166074#6 -674166074#4 -674166074#3 -674166074#2 -674166074#1 -674166074#0 -21232562#7 -21232562#6 -21232562#5 -21232562#4 -21232562#3"/>
    </vehicle>
    <vehicle id="15" type="pedestrian" depart="21.00" departLane="best" departSpeed="max">
        <route edges="-19930608#2 -19930608#1 -19930608#0 -1097875868 1097875868 19930608#0 19930608#1 19930608#2 19930608#3 674154675 674154676#0 674154676#1 674154676#2 1098370053#0 1098370053#1 1098370053#2 1098370053#3 -674154677 23704218#0 23704218#1 -23704217 124086106#1 124086106#2 124086106#3 124086106#4 124086106#5 124086106#6 124086106#7 124086106#8 124086106#9 124086106#10 124086106#11 124086106#12 124086106#13 -124086106#13 -124086106#12"/>
    </vehicle>
    <vehicle id="16" type="pedestrian" depart="22.40" departLane="best" departSpeed="max">
        <route edges="20119055 -20119055 -20124217#9 -20124217#8 -20124217#7 -20124217#6 -20124217#5 -20124217#4 -20122138#4 -20122138#3 -20122138#2 -20122138#0 20122138#0 20122138#2 20122138#3"/>
    </vehicle>
    <vehicle id="17" type="pedestrian" depart="23.80" departLane="best" departSpeed="max">
        <route edges="20128453#28 20128453#29 20128453#30 312525369#24 312525369#25 312525369#27 312525369#28 312525369#29 312525369#30 312525369#31 20110142#1 20110142#2 20110142#3 20110142#4 109197319#0 109197319#1 109197319#2 23703752 672778982"/>
    </vehicle>
    <vehicle id="18" type="pedestrian" depart="25.20" departLane="best" departSpeed="max">
        <route edges="674166079#1 674166079#2 674166079#3 674166079#4 674166079#5 20136639#0 20136639#1 954999067#1"/>
    </vehicle>
    <vehicle id="19" type="pedestrian" depart="26.60" departLane="best" departSpeed="max">
        <route edges="911581869 605212556 323059471 20110160 23746974 23746972 36924509 36924531 23746977 23746970 20110449 36924394 36924527 918041687 918041688#0 713043015#0 268394234#1 268394234#2 671892434 20110447 236837931 236837930#0 236837930#1 236837929#0 236837929#1 236837928 605212555#1"/>
    </vehicle>
    <vehicle id="20" type="pedestrian" depart="28.00" departLane="best" departSpeed="max">
        <route edges="1097875870#0 1097875870#1 1097875869#0 1097875869#1 1097875868 19930608#0 19930608#1 19930608#2 19930608#3 674154675 674154676#0 674154676#1 674154676#2 1098370053#0 1098370053#1 1098370053#2 1098370053#3 -674154677 23704218#0 23704218#1 -23704217 124086106#1 124086106#2 124086106#3 124086106#4 124086106#5 124086106#6 124086106#7 124086106#8 124086106#9 124086106#10 20137855 20132497 -20118467#6 -20118467#5 -20118467#4 -20118467#3 -20118467#2 -20118467#1 -20118467#0"/>
    </vehicle>
    <vehicle id="21" type="pedestrian" depart="29.40" departLane="best" departSpeed="max">
        <route edges="-390634953#5 -390634953#4 -390634953#3 -390634953#2 -390634953#1 390634953#1 390634953#2 390634953#3 390634953#4 390634953#5 390634953#6 390634953#7 20135954"/>
    </vehicle>
    <vehicle id="22" type="pedestrian" depart="30.80" departLane="best" departSpeed="max">
        <route edges="390634953#12 390634953#13 390634953#14 674154676#0 674154676#1 674154676#2 1098370053#0 1098370053#1 1098370053#2 1098370053#3 -674154677 23704218#0 23704218#1 -23704217 124086106#1 124086106#2 124086106#3 124086106#4 124086106#5 124086106#6 124086106#7 124086106#8 124086106#9 124086106#10 124086106#11 124086106#12 124086106#13 -124086106#13 -124086106#12"/>
    </vehicle>
    <vehicle id="23" type="pedestrian" depart="32.20" departLane="best" departSpeed="max">
        <route edges="20139428 -20136531#1 -20136531#0 -124086106#2 -124086106#1 23704217 -23704218#1 606996259 290089185#0 290089185#1 -1098370053#1 -1098370053#0 -674154676#2 -674154676#1 -674154676#0 -674154675 -17821059#1 -17821059#0"/>
    </vehicle>
    <vehicle id="24" type="pedestrian" depart="33.60" departLane="best" departSpeed="max">
        <route edges="678006257#2 -678006257#2 -20125860#6 -20123316#1"/>
    </vehicle>
    <vehicle id="25" type="pedestrian" depart="35.00" departLane="best" departSpeed="max">
        <route edges="674154676#0 -674154676#0 -674154675 -19930608#3 -19930608#2 -19930608#1 -19930608#0 -1097875868 -21224598 -20124639#10 -20124639#9 -20124639#8 -20124639#7 -20124639#6 -20124639#5 -20124639#4 -20124639#3 -20124639#2 -20124639#1 -101081088#2 -101081088#1 -101081088#0 -1097875872 1097875872"/>
    </vehicle>
    <vehicle id="26" type="pedestrian" depart="36.40" departLane="best" departSpeed="max">
        <route edges="674166078#1 -674166078#1 -674166078#0 -20129262#5 -20129262#4 -20129262#3 -20129262#2 -20129262#1 -20129262#0 -674166079#5 -674166079#4 -674166079#3 -674166079#2 -674166079#1 674166077#1 -1308529312#14 -1308529312#13 -1308529312#11 -1308529312#10 -1308529312#9 -1308529312#8 -1308529312#7 -1308529312#6 -1308529312#5 -1308529312#3 -1308529312#2 -1308529312#1 -207079110#27 -207079110#25 -207079110#24 -207079110#23 -207079110#22 -207079110#21 -207079110#20 -207079110#19 -207079110#18 -207079110#17 -207079110#16 -207079110#15 -207079110#14 -207079110#13 -207079110#12 -207079110#11 -207079110#10 -207079110#9 -207079110#8 -207079110#7 -207079110#6 -207079110#4 -207079110#3 -207079110#2 -207079110#1 -672778969#5 -672778969#4 -672778969#3 -672778969#2 -672778969#1 -672778969#0 -207079112 -672778988#3 -672778988#2 -672778988#1 -19930577#5 -19930577#4 -19930577#3 -19930577#2 -19930577#1 23703756#1 23703756#2 23703756#3 23703756#4 1308307324 109197314 1249554752#0 1249554753#0 1249554753#1 1308307325#0 1308307325#1 15089792#0 15089792#2 672779043 23746965#0 23746965#1 1107321531#1 38654523 38654524 38654521 38654522#0"/>
    </vehicle>
    <vehicle id="27" type="pedestrian" depart="37.80" departLane="best" departSpeed="max">
        <route edges="20128629#1"/>
    </vehicle>
    <vehicle id="28" type="pedestrian" depart="39.20" departLane="best" departSpeed="max">
        <route edges="674154676#0 674154676#1 674154676#2 1098370053#0 1098370053#1 1098370053#2 1098370053#3 -674154677 23704218#0 23704218#1 -23704217 124086106#1 124086106#2 124086106#3 124086106#4 124086106#5 124086106#6 124086106#7 124086106#8 124086106#9 124086106#10 124086106#11 124086106#12 124086106#13 -124086106#13 -124086106#12"/>
    </vehicle>
    <vehicle id="29" type="pedestrian" depart="40.60" departLane="best" departSpeed="max">
        <route edges="70260003#0 70260003#1 -70260003#1 -70260003#0 -1308547638 -1308547637 -1308547636#2 -1308547636#1"/>
    </vehicle>
    <vehicle id="30" type="pedestrian" depart="42.00" departLane="best" departSpeed="max">
        <route edges="593517664#7 -593517664#7 -593517664#6 -593517664#5 -593517664#4 -593517664#3 -593517664#2 -593517664#1 -593517664#0 139602835#0 139602835#1 139602835#2 33481484 33481938 -33481938 -33481484 -139602835#2 -139602835#1"/>
    </vehicle>
    <vehicle id="31" type="pedestrian" depart="43.40" departLane="best" departSpeed="max">
        <route edges="-674154676#0 674154676#0 674154676#1 674154676#2 1098370053#0 1098370053#1 1098370053#2 1098370053#3 -674154677 23704218#0 23704218#1 -23704217 -678006257#4 -678006257#3 -678006257#2 -678006257#1 20127441#2 -20123316#2"/>
    </vehicle>
    <vehicle id="33" type="pedestrian" depart="46.20" departLane="best" departSpeed="max">
        <route edges="1308529304#1 1308529304#2 -1308529304#2 -1308529304#1 -1308529304#0 -1308529295#1 -1308529303#1 -1308529303#0 1098370047 180126049 1098370046#0 1098370049#1 379738160#0 379738160#1 379738160#2 379738160#3 672778976#1 672778976#2 41163298#0 41163298#1 41163302#0 41163302#2 41163302#3 41163302#4 41163302#5 41163302#6 41163302#7 41163302#8 -41163302#8 -41163302#7"/>
    </vehicle>
    <vehicle id="34" type="pedestrian" depart="47.60" departLane="best" departSpeed="max">
        <route edges="1097875871 1097875870#0 1097875870#1 1097875869#0 1097875869#1 1097875868 19930608#0 19930608#1 19930608#2 19930608#3 674154674 268388495#0 268388495#1 268388495#2 268388495#3 268388495#4 -268388495#4 -268388495#3 -268388495#2"/>
    </vehicle>
    <vehicle id="35" type="pedestrian" depart="49.00" departLane="best" departSpeed="max">
        <route edges="-20136552#34 -20136552#33 -20136552#32 -20136552#31 -20136552#30 -20136552#28 -20136552#27 -20136559#1 -1308307325#1 -1308307325#0 -1249554753#1 -1249554753#0 20128453#1 20128453#2 20128453#3 20128453#4 20128453#5 20128453#6 20128453#7 20128453#8 20128453#9 20128453#11 20128453#12 20128453#13 20128453#15 20128453#16 20128453#17 20128453#18 20128453#19 20128453#20 20128453#21 20128453#22 20128453#23 20128453#24 20128453#25 20128453#26 20128453#27 20128453#28 20128453#29 20128453#30"/>
    </vehicle>
    <vehicle id="36" type="pedestrian" depart="50.40" departLane="best" departSpeed="max">
        <route edges="21232557#15 21232557#16 -21232557#16 -21232557#15 -21232557#14 -21232557#13 -21232557#12 -21232557#11 -21232557#10 -21232557#9"/>
    </vehicle>
    <vehicle id="37" type="pedestrian" depart="51.80" departLane="best" departSpeed="max">
        <route edges="542123162#5 542123162#6 542123160#0 542123160#1 542123160#2 674166077#1 -1308529312#14 -1308529312#13 -1308529312#11 -1308529312#10 -1308529312#9 -1308529312#8 -1308529312#7 -1308529312#6 -1308529312#5 -1308529312#3 -1308529312#2 -1308529312#1 15276248#1 15276248#2 15276248#3 20124217#0 20124217#1 20124217#2 20124217#3 20124217#4 -20124217#4"/>
    </vehicle>
    <vehicle id="38" type="pedestrian" depart="53.20" departLane="best" departSpeed="max">
        <route edges="20139428 -20136531#1 -20136531#0 124086106#3 124086106#4 124086106#5 20128629#0 20128629#1 20125860#2"/>
    </vehicle>
    <vehicle id="39" type="pedestrian" depart="54.60" departLane="best" departSpeed="max">
        <route edges="124086106#12 124086106#13 -124086106#13 -124086106#12 301941898#0"/>
    </vehicle>
    <vehicle id="41" type="pedestrian" depart="57.40" departLane="best" departSpeed="max">
        <route edges="19930576#3"/>
    </vehicle>
    <vehicle id="43" type="pedestrian" depart="60.20" departLane="best" departSpeed="max">
        <route edges="36924531 23746977 23746970 20110449 36924394 36924527 918041687 713043016#0 713043016#1 -15089737 139602835#0 139602835#1 139602835#2 33481484 33481938 -33481938 -33481484 -139602835#2"/>
    </vehicle>
    <vehicle id="44" type="pedestrian" depart="61.60" departLane="best" departSpeed="max">
        <route edges="23703755#2 23703755#3 23703756#1 23703756#2 23703756#3 23703756#4 1308307324 109197314 1249554752#0 20128453#1 20128453#2 20128453#3 20128453#4 20128453#5 20128453#6 20128453#7 20128453#8 20128453#9 20128453#11 20128453#12 20128453#13 20128453#15 20128453#16 20128453#17"/>
    </vehicle>
    <vehicle id="45" type="pedestrian" depart="63.00" departLane="best" departSpeed="max">
        <route edges="41405321#19 41405321#20 41405321#21 1308547637 1308547638 40597178#1 40597178#2 40597178#3 40597178#4 40597178#5 40597178#6 40597178#8 40597178#9 1308529317#0 1308529317#1 41163311 41163310#2 41163309 -41163298#4 -41163298#3 -41163298#2 -41163298#1 -41163298#0 -672778976#2 -672778976#1 -379738160#3 -379738160#2 -379738160#1 -379738160#0 379738160#0 379738160#1 379738160#2 379738160#3"/>
    </vehicle>
    <vehicle id="46" type="pedestrian" depart="64.40" departLane="best" departSpeed="max">
        <route edges="20127978#5 20127978#6 20141218#0 20141218#1"/>
    </vehicle>
    <vehicle id="47" type="pedestrian" depart="65.80" departLane="best" departSpeed="max">
        <route edges="-20129337#3 -20129337#2 -20129337#1 -20129337#0 20119047#1 -20121851#1 -20121851#0 20121851#0"/>
    </vehicle>
    <vehicle id="48" type="pedestrian" depart="67.20" departLane="best" departSpeed="max">
        <route edges="20136776#0 20136776#1 20136776#2 20136552#17 20136552#18 20136552#19 20136552#20 504901042 504901041#1 15089792#2 672779043 23746965#0"/>
    </vehicle>
    <vehicle id="49" type="pedestrian" depart="68.60" departLane="best" departSpeed="max">
        <route edges="-542123160#2 -542123160#1 -542123160#0 21232566#0 21232566#1 21232566#2 21232566#3 674166078#0 674166078#1 873400967 873400966#4 873400966#5 873400966#6 873400966#7 873400966#0 873400980 -873400981#4 -873400981#3 -873400981#2 -873400981#1 -873400981#0"/>
    </vehicle>
    <vehicle id="50" type="pedestrian" depart="70.00" departLane="best" departSpeed="max">
        <route edges="139602835#2 33481484 33481938 -33481938 -33481484 -139602835#2"/>
    </vehicle>
    <vehicle id="51" type="pedestrian" depart="71.40" departLane="best" departSpeed="max">
        <route edges="124086106#12 124086106#13 -124086106#13 -124086106#12 -124086106#11 -124086106#10 -124086106#9 -124086106#8 -124086106#7 -124086106#6"/>
    </vehicle>
    <vehicle id="52" type="pedestrian" depart="72.80" departLane="best" departSpeed="max">
        <route edges="-20122138#4 -20122138#3 -20122138#2 -20122138#0 -20133768#3 -20133768#2 -20133768#1 -20133768#0 -910676334 -910676333#1 910676333#1"/>
    </vehicle>
    <vehicle id="53" type="pedestrian" depart="74.20" departLane="best" departSpeed="max">
        <route edges="20121851#0 20121851#1 20116461#2 20116461#3 20122138#4 20124217#4 20124217#5 20124217#6"/>
    </vehicle>
    <vehicle id="54" type="pedestrian" depart="75.60" departLane="best" departSpeed="max">
        <route edges="1308547636#2 1308547637 -1308529318 -1098370040#1 -674154672#0 -1308547644 -1098370041 672778980"/>
    </vehicle>
    <vehicle id="55" type="pedestrian" depart="77.00" departLane="best" departSpeed="max">
        <route edges="20118788#3 -20141568#2 -20141568#1 20117987"/>
    </vehicle>
    <vehicle id="56" type="pedestrian" depart="78.40" departLane="best" departSpeed="max">
        <route edges="40597180#4 40597180#5 -40597178#6 -40597178#5 -40597178#4 -40597178#3 -40597178#2 -40597180#2 -40597180#1 70260003#2 1308547639#0 1308547639#1 1308547639#2 1098370039 -1308529295#1 15089727#1 23958814#1 23958814#2 23958814#3 23958814#4 23958814#5 23958814#6 23958814#7 23958814#8 23958814#9 1245678535#0"/>
    </vehicle>
    <vehicle id="57" type="pedestrian" depart="79.80" departLane="best" departSpeed="max">
        <route edges="20128453#7 20128453#8 20128453#9 20128453#11 20128453#12 20128453#13 20128453#15 20128453#16 20128453#17 20128453#18 20128453#19 20128453#20 20128453#21 20128453#22 20128453#23 20128453#24 20128453#25 20128453#26 20128453#27 20128453#28 20128453#29 20128453#30 312525369#24 312525369#25 312525369#27 312525369#28 312525369#29 312525369#30 312525369#31 672779006 19930577#1"/>
    </vehicle>
    <vehicle id="58" type="pedestrian" depart="81.20" departLane="best" departSpeed="max">
        <route edges="301941898#0 301941898#1 301941898#2 -301941898#2 -301941898#1 -301941898#0 -124086106#11 -124086106#10 -124086106#9 -124086106#8 -124086106#7 -124086106#6 -124086106#5 -124086106#4 -124086106#3 -124086106#2 -124086106#1 23704217 -23704218#1 606996259 290089185#0 290089185#1 -1098370053#1 -1098370053#0 -674154676#2 -674154676#1 -674154676#0 -674154675 -19930608#3 -19930608#2 -19930608#1 -19930608#0 -1097875868 -21224598 -20124639#10 -20124639#9 -20124639#8 -20124639#7 -20124639#6 -20124639#5 -20124639#4 -20124639#3 -20124639#2 -20124639#1 -101081088#2 -101081088#1 -101081088#0 -1097875872 1097875872"/>
    </vehicle>
    <vehicle id="60" type="pedestrian" depart="84.00" departLane="best" departSpeed="max">
        <route edges="613230853#0 613230853#1 674166094#2 674166094#3 674166094#4 674166094#5 674166094#6 674166094#7 -674166094#7 -674166094#6 -674166094#5 -674166094#4 -674166094#3 -674166094#2"/>
    </vehicle>
    <vehicle id="61" type="pedestrian" depart="85.40" departLane="best" departSpeed="max">
        <route edges="36924527 918041687 918041688#0 713043015#0 713043015#1 709995751"/>
    </vehicle>
    <vehicle id="62" type="pedestrian" depart="86.80" departLane="best" departSpeed="max">
        <route edges="20129894#6 20129894#7 20129894#8 379738162#15 379738162#16"/>
    </vehicle>
    <vehicle id="63" type="pedestrian" depart="88.20" departLane="best" departSpeed="max">
        <route edges="-1308529300 1308529300 1123299224 -17825901#2 -17825901#1 -17825901#0 -1249554756#1 -1249554756#0 674154676#1 674154676#2 1098370053#0 1098370053#1 -1098370053#1 -1098370053#0"/>
    </vehicle>
    <vehicle id="64" type="pedestrian" depart="89.60" departLane="best" departSpeed="max">
        <route edges="-180904959#1 -180904959#0 180904959#0 180904959#1"/>
    </vehicle>
    <vehicle id="65" type="pedestrian" depart="91.00" departLane="best" departSpeed="max">
        <route edges="20135107#4 -20135107#4 -20135107#3 -20135107#2 -20135107#1 -20135107#0 207079110#24 207079110#25 207079110#27 15276248#1 15276248#2 15276248#3 15276248#4 15276248#5 15276248#6 20127334#1 20127334#2 20127334#3 20127334#4 20127334#5"/>
    </vehicle>
    <vehicle id="66" type="pedestrian" depart="92.40" departLane="best" departSpeed="max">
        <route edges="-20113104#2 -20113104#1 -20113104#0 390634953#1 390634953#2 390634953#3 390634953#4 390634953#5 20113379#0 20113379#1"/>
    </vehicle>
    <vehicle id="67" type="pedestrian" depart="93.80" departLane="best" departSpeed="max">
        <route edges="-674166092#18 -674166092#17 -674166092#16 -674166092#14 -674166092#13 -674166092#12 -674166092#11 -674166092#10 -674166092#9 -674166092#8 -674166092#7 -674166092#6 -674166092#5 -674166092#4 -674166092#3 -674166092#2 -674166092#1 -674166092#0 -761611462 -20133901#1 -725755517#0 -725755519 -20136639#5 -20136639#4 954999067#1 873400981#0 873400981#1 873400981#2 873400981#3 873400981#4 873400972 873400966#2 873400966#3 873400966#4 873400970 138849679#0 138849679#1 138849679#2 138849679#3 138849679#4 138849679#5 138849679#6 138849679#7"/>
    </vehicle>
    <vehicle id="68" type="pedestrian" depart="95.20" departLane="best" departSpeed="max">
        <route edges="23746970 20110449 36924394 36924527 918041687 713043016#0 713043016#1 -15089737 139602835#0 139602835#1 139602835#2 33481484 33481938 -33481938 -33481484 -139602835#2"/>
    </vehicle>
    <vehicle id="69" type="pedestrian" depart="96.60" departLane="best" departSpeed="max">
        <route edges="1308529313 -413399529#1 -413399520 -1308529314#1 -1308529314#0 -1026226755#3 -1026226755#2 -1026226755#1 -20127978#6 -20127978#5 -20127978#4 20127978#4 20127978#5"/>
    </vehicle>
    <vehicle id="70" type="pedestrian" depart="98.00" departLane="best" departSpeed="max">
        <route edges="20118788#0 -20124306 -20130839#0"/>
    </vehicle>
    <vehicle id="71" type="pedestrian" depart="99.40" departLane="best" departSpeed="max">
        <route edges="124086106#12 124086106#13 -124086106#13 -124086106#12 -124086106#11 -124086106#10 -124086106#9 -124086106#8 -124086106#7 -124086106#6 -124086106#5 -124086106#4 -124086106#3 -124086106#2 -124086106#1 23704217 -23704218#1 606996259 290089185#0 290089185#1 -1098370053#1 -1098370053#0 -674154676#2 -674154676#1 -674154676#0 -674154675 -19930608#3 -19930608#2 -19930608#1 -19930608#0 -1097875868 -1097875869#1 -1097875869#0 -1097875870#1 -1097875870#0 1097875870#0 1097875870#1 1097875869#0 1097875869#1"/>
    </vehicle>
    <vehicle id="72" type="pedestrian" depart="100.80" departLane="best" departSpeed="max">
        <route edges="124086104#1 124086104#2 20116719#0 -678006257#2 -20125860#6 -20123316#1"/>
    </vehicle>
    <vehicle id="73" type="pedestrian" depart="102.20" departLane="best" departSpeed="max">
        <route edges="323059478 947989180 23746975 36924509 36924531 23746977 23746970 20110449 36924394 36924527 918041687 918041688#0 713043015#0 713043015#1 709995751 -138849679#7 -138849679#6 -138849679#5 -138849679#4 -138849679#3 -138849679#2 -138849679#1 -138849679#0 873400969 873400966#6 873400966#7 873400966#0 873400966#1 873400966#2 873400968 -674166078#1 -674166078#0 -20129262#5 -20129262#4 -20129262#3 -20129262#2 -20129262#1 -20129262#0 -674166079#5 -674166079#4 -674166079#3 -674166079#2 -674166079#1 674166077#1 -1308529312#14 -1308529312#13 -1308529312#11 -1308529312#10 -1308529312#9 -1308529312#8 -1308529312#7 -1308529312#6 -1308529312#5 -1308529312#3 -1308529312#2 -1308529312#1 -207079110#27 -207079110#25 -207079110#24 -207079110#23 -207079110#22 -207079110#21 -207079110#20 -207079110#19 -207079110#18 -207079110#17 -207079110#16 -207079110#15 -207079110#14 -207079110#13 -207079110#12 -207079110#11 -207079110#10 -207079110#9 -207079110#8 -207079110#7 -207079110#6 -207079110#4 -207079110#3 -207079110#2 -207079110#1 -672778969#5 -672778969#4 -672778969#3 -672778969#2 -672778969#1 -672778969#0 -207079112 -672778988#3 -672778988#2 -672778988#1 -19930577#5 -19930577#4 -19930577#3 -19930577#2 -19930577#1 23703756#1 23703756#2 23703756#3 23703756#4 1308307324 109197314 1249554752#0 1249554753#0 1249554753#1 1308307325#0 1308307325#1 15089792#0 15089792#2 672779043 23746965#0 23746965#1 1107321531#1 38654523 38654524 38654521 38654522#0 38654522#1 1105141095 38654517 1190805608 38654518 122189422#0"/>
    </vehicle>
    <vehicle id="74" type="pedestrian" depart="103.60" departLane="best" departSpeed="max">
        <route edges="-21232557#14 -21232557#13 -21232557#12 -21232557#11 -21232557#10 -21232557#9 -21232557#8 -21232557#7 -21232557#6 -21232557#5 -21232557#4 -21232557#3 -21232557#2 -21232557#1 -21232557#0 21232557#0 21232557#1 21232557#2 21232557#3 21232557#4 21232557#5 21232557#6 21232557#7 21232557#8 21232557#9 21232557#10 21232557#11 21232557#12 21232557#13 21232557#14 21232557#15 21232557#16 -21232557#16 -21232557#15"/>
    </vehicle>
    <vehicle id="75" type="pedestrian" depart="105.00" departLane="best" departSpeed="max">
        <route edges="-390634953#2 -390634953#1 20113104#0 20113866#1 20116112#1"/>
    </vehicle>
    <vehicle id="76" type="pedestrian" depart="106.40" departLane="best" departSpeed="max">
        <route edges="-786277484#0 -1079927062#1 -1079927063 -672778974 19930590 1308529301#1 17824973#0 17824973#1 180126046#0 1098370051 -1011944411#1 -1011944411#0"/>
    </vehicle>
    <vehicle id="77" type="pedestrian" depart="107.80" departLane="best" departSpeed="max">
        <route edges="-593517664#11 593517664#11"/>
    </vehicle>
    <vehicle id="78" type="pedestrian" depart="109.20" departLane="best" departSpeed="max">
        <route edges="-1098370053#0 -674154676#2 -674154676#1 674154676#1 674154676#2 1098370053#0 1098370053#1 1098370053#2 1098370053#3 -674154677 23704218#0 23704218#1 -23704217 124086106#1 124086106#2 20136531#0 20136531#1 20136531#2"/>
    </vehicle>
    <vehicle id="79" type="pedestrian" depart="110.60" departLane="best" departSpeed="max">
        <route edges="1308529295#1 -1308529295#1 -1308529303#1 -1308529303#0 1098370047 180126049 1098370046#0 -1098370048#1 -1098370048#0"/>
    </vehicle>
    <vehicle id="80" type="pedestrian" depart="112.00" departLane="best" departSpeed="max">
        <route edges="20113104#1 -20113104#1 -20113104#0 390634953#1 390634953#2 390634953#3 390634953#4 390634953#5 180904959#0 180904959#1"/>
    </vehicle>
    <vehicle id="81" type="pedestrian" depart="113.40" departLane="best" departSpeed="max">
        <route edges="-139456715#0 -21232553#3"/>
    </vehicle>
    <vehicle id="82" type="pedestrian" depart="114.80" departLane="best" departSpeed="max">