<?xml version="1.0" encoding="UTF-8"?>

<!-- generated on 2024-11-11 17:50:30 by Eclipse SUMO polyconvert Version 1.20.0
<configuration xmlns:xsi="http://www.w3.org/2001/XMLSchema-instance" xsi:noNamespaceSchemaLocation="http://sumo.dlr.de/xsd/polyconvertConfiguration.xsd">

    <input>
        <net-file value="Roc.net.xml"/>
        <osm-files value="map.osm"/>
        <type-file value="/Users/swetna/sumo/data/typemap/osmPolyconvert.typ.xml"/>
    </input>

    <output>
        <output-file value="Roc.poly.xml"/>
    </output>

</configuration>
-->

<additional xmlns:xsi="http://www.w3.org/2001/XMLSchema-instance" xsi:noNamespaceSchemaLocation="http://sumo.dlr.de/xsd/additional_file.xsd">
    <location netOffset="-276183.30,-4766204.18" convBoundary="-11611.85,-19099.97,29612.08,11311.29" origBoundary="-77.881045,42.840539,-77.384715,43.119938" projParameter="+proj=utm +zone=18 +ellps=WGS84 +datum=WGS84 +units=m +no_defs"/>

    <poly id="100898072" type="landuse" color="194,194,130" fill="1" layer="-3.00" shape="6221.433392,7582.330613 6237.036949,7582.311003 6238.621389,7580.125986 6245.774738,7562.210527 6245.836750,7549.846318 6243.643402,7545.202608 6216.874600,7517.062893 6215.163368,7516.294805 6218.545291,7523.968923 6220.584726,7529.406850 6221.433392,7582.330613"/>
    <poly id="100898073" type="leisure" color="207,245,201" fill="1" layer="-2.00" shape="6284.567014,7636.503186 6284.744293,7673.495284 6285.099976,7748.024189 6285.156104,7758.728181 6294.205913,7758.639726 6296.934552,7758.608309 6299.582145,7758.590593 6368.567495,7757.914417 6369.878727,7757.894857 6368.897598,7635.593517 6284.567014,7636.503186"/>
    <poly id="100898073#1" type="sport" color="79,230,125" fill="1" layer="-2.00" shape="6284.567014,7636.503186 6284.744293,7673.495284 6285.099976,7748.024189 6285.156104,7758.728181 6294.205913,7758.639726 6296.934552,7758.608309 6299.582145,7758.590593 6368.567495,7757.914417 6369.878727,7757.894857 6368.897598,7635.593517 6284.567014,7636.503186"/>
    <poly id="100898082" type="building" color="255,230,230" fill="1" layer="-1.00" shape="6115.695754,7636.598079 6122.150820,7636.392099 6121.967617,7630.906083 6115.512545,7631.112063 6115.695754,7636.598079"/>
    <poly id="100898115" type="tourism" color="207,245,201" fill="1" layer="-2.00" shape="5822.956721,7522.322913 5825.846708,7524.787519 5828.141308,7526.215020 5836.915508,7527.435495 5844.610337,7525.477607 5861.488525,7525.049561 5861.319900,7518.495825 5860.988701,7505.832847 5860.120490,7473.554128 5822.334739,7474.038724 5822.956721,7522.322913"/>
    <poly id="100898120" type="parking" color="184,184,179" fill="1" layer="-1.00" shape="5700.958829,7279.209642 5707.356249,7279.483174 5707.412894,7250.409968 5700.015275,7250.713149 5700.685531,7274.993854 5700.958829,7279.209642"/>
    <poly id="101006726" type="forest" color="140,196,107" fill="1" layer="-4.00" shape="6292.988222,7005.561340 6272.590283,7014.227045 6179.156015,6977.529504 6174.145619,6982.425198 6167.949884,6988.481533 6153.447906,7002.640388 6234.115387,7053.229697 6231.068234,7071.647853 6126.489601,7063.910782 6118.619545,7051.199304 6087.170708,7088.177727 6116.763327,7099.273362 6137.511877,7099.567488 6137.660431,7096.305434 6139.070802,7093.258819 6175.250979,7093.983508 6174.847312,7101.000165 6177.934826,7103.525324 6179.136907,7106.977756 6180.169907,7114.582264 6185.543743,7125.683616 6222.287593,7128.247121 6254.253268,7136.088157 6264.823728,7186.989859 6269.087377,7194.458018 6270.853622,7201.294309 6267.443459,7203.470818 6261.884563,7207.005425 6267.963038,7252.480687 6277.388609,7322.940543 6278.183320,7332.275809 6300.351244,7376.093058 6308.705455,7383.052843 6311.554687,7393.445441 6316.913951,7402.312799 6329.047658,7403.860382 6352.431688,7415.032547 6359.195584,7415.817501 6364.802486,7414.816132 6375.640778,7412.280639 6393.324024,7407.703826 6407.610636,7408.026762 6419.955945,7410.590533 6422.437000,7405.342031 6441.697622,7414.978313 6447.690748,7405.126622 6452.468131,7397.270277 6458.093484,7362.572507 6480.403625,7323.663500 6470.119333,7306.759619 6448.723157,7268.720417 6444.745697,7232.371972 6474.233040,7151.945492 6588.223187,7184.312595 6629.907882,7201.573357 6666.809552,7220.387329 6643.081615,7293.392323 6762.788345,7294.496893 6800.199913,7329.370560 6800.065296,7325.650630 6798.963572,7296.136558 6780.086352,7131.771129 6693.836061,7126.055038 6692.225873,6980.183816 6644.998736,6945.000422 6595.029886,6915.607652 6549.861572,6898.791414 6514.577306,6890.398719 6499.386074,6886.780292 6453.653575,6882.711682 6403.931903,6881.838784 6371.125650,6883.962444 6428.455495,7025.679610 6292.988222,7005.561340"/>
    <poly id="101012255" type="parking" color="184,184,179" fill="1" layer="-1.00" shape="6470.119333,7306.759619 6492.646393,7306.375568 6492.566833,7302.086908 6492.493649,7297.486767 6492.005715,7269.376092 6469.478533,7269.760141 6470.119333,7306.759619"/>
    <poly id="101012257" type="landuse" color="194,194,130" fill="1" layer="-3.00" shape="6469.478533,7269.760141 6492.005715,7269.376092 6492.493649,7297.486767 6643.081615,7293.392323 6666.809552,7220.387329 6629.907882,7201.573357 6588.223187,7184.312595 6474.233040,7151.945492 6444.745697,7232.371972 6448.723157,7268.720417 6470.119333,7306.759619 6469.478533,7269.760141"/>
    <poly id="101012444" type="landuse" color="194,194,130" fill="1" layer="-3.00" shape="6692.225873,6980.183816 6693.836061,7126.055038 6780.086352,7131.771129 6771.301618,7101.789956 6750.968547,7056.656753 6724.475518,7017.700544 6692.225873,6980.183816"/>
    <poly id="101081054" type="water" color="181,209,209" fill="1" layer="-4.00" shape="5852.569725,7118.568967 5854.322625,7120.892043 5858.051393,7130.222510 5859.709884,7172.703745 5861.834804,7219.072203 5871.990946,7246.707421 5884.524929,7251.843411 5910.836568,7251.558918 5921.193390,7261.244713 5937.504515,7260.901711 5937.028028,7253.890892 5935.729427,7242.570640 5929.978399,7216.351074 5926.952111,7203.496243 5923.068601,7191.102356 5917.231149,7175.958231 5912.161139,7162.646164 5901.468304,7148.057327 5890.017209,7132.436593 5882.307817,7125.023108 5873.980516,7118.930074 5865.408716,7114.112213 5858.639996,7105.790451 5854.608798,7104.084890 5850.489153,7102.926896 5848.194500,7102.522159 5845.890604,7101.572978 5844.554742,7100.570639 5843.746923,7099.006692 5843.720613,7097.417780 5843.252949,7096.043076 5841.940425,7094.750946 5840.693045,7093.712430 5839.104444,7092.451355 5837.098576,7091.648296 5834.551575,7091.507319 5831.329643,7091.921527 5827.819238,7092.233782 5826.552794,7091.874024 5824.916470,7091.414911 5823.613521,7090.422642 5822.840763,7089.191091 5821.978022,7086.928521 5821.359384,7083.123985 5819.621996,7080.266797 5818.192261,7078.366973 5815.867003,7075.984370 5807.019973,7069.696789 5805.452985,7068.857481 5803.790812,7068.354730 5801.982856,7068.390261 5800.177404,7068.759227 5797.959279,7069.474893 5797.765675,7069.536665 5796.398467,7070.614244 5795.360083,7071.781372 5794.266843,7073.016955 5793.506330,7074.464251 5794.138719,7077.423442 5794.072298,7078.915263 5793.577613,7080.520822 5792.639028,7081.495770 5791.482042,7082.266470 5788.553173,7082.671335 5785.914071,7081.688415 5785.323928,7080.306510 5784.743346,7078.968769 5783.935512,7077.404828 5783.347477,7075.833865 5780.260190,7073.831372 5776.995247,7072.134721 5776.967061,7069.467504 5778.723766,7066.042872 5780.755335,7060.764009 5781.928664,7056.424178 5781.433888,7052.671272 5779.266996,7048.104658 5766.394206,7039.010834 5751.771110,7029.972966 5737.170713,7021.901595 5728.832783,7018.543882 5724.722027,7018.686384 5721.084265,7020.114477 5719.386596,7022.581162 5719.434255,7025.092118 5719.864387,7029.880984 5721.581098,7057.585668 5723.386127,7079.640011 5723.082002,7090.266622 5721.831641,7095.509419 5720.347640,7100.326114 5719.246206,7104.619193 5719.444755,7108.281511 5720.424315,7110.373579 5721.734447,7112.355028 5723.247291,7117.109288 5723.533398,7122.236273 5723.151022,7128.629746 5721.873457,7134.295866 5720.936831,7137.116211 5719.929022,7139.494146 5719.158665,7141.397570 5719.269559,7142.572444 5720.029907,7143.415280 5721.337407,7143.784823 5722.891233,7143.957502 5724.307306,7143.389733 5725.703524,7142.455733 5727.244738,7140.194157 5728.961286,7135.514553 5730.553574,7130.516523 5732.696428,7123.622096 5734.426211,7120.376185 5736.841304,7117.919924 5742.123481,7116.950669 5754.615876,7116.184560 5760.474337,7115.908401 5760.916064,7115.960988 5766.290409,7116.600794 5767.018479,7116.688700 5772.914225,7117.834356 5778.748284,7117.814687 5785.227899,7117.340826 5790.310843,7116.767075 5796.280079,7116.387353 5799.796608,7117.542350 5804.192329,7118.669258 5811.938110,7119.566846 5825.368748,7118.070509 5833.829724,7117.377755 5841.880177,7117.354037 5843.968096,7117.409627 5847.866441,7117.507439 5850.313969,7117.596012 5852.569725,7118.568967"/>
    <poly id="101082795" type="water" color="181,209,209" fill="1" layer="-4.00" shape="5307.453342,7601.648312 5358.317490,7666.833870 5375.478518,7687.462661 5394.218341,7706.251071 5416.722440,7726.052972 5439.602086,7744.608907 5461.691105,7759.087967 5485.817393,7772.812626 5508.971105,7784.411749 5533.197935,7794.409083 5538.781416,7793.196531 5543.594543,7790.063121 5546.638019,7786.119193 5531.424346,7752.476175 5510.114181,7736.104285 5437.808240,7691.114739 5430.481645,7682.422150 5419.658761,7662.001665 5409.656540,7651.182424 5407.024753,7629.043377 5406.096373,7616.588472 5390.667924,7587.721863 5355.103139,7564.925236 5331.027895,7567.074726 5307.718896,7582.462603 5306.329622,7590.478145 5307.453342,7601.648312"/>
    <poly id="101082797" type="parking" color="184,184,179" fill="1" layer="-1.00" shape="5331.288690,7498.628794 5351.800185,7506.054183 5372.256909,7512.025029 5389.387532,7516.423721 5390.685270,7510.890273 5407.772927,7438.092508 5409.013044,7432.794371 5417.735541,7434.683009 5433.984067,7437.231253 5451.195840,7438.814861 5451.538846,7434.001252 5450.754478,7425.788511 5450.713753,7420.442441 5431.215811,7418.209390 5416.460479,7415.724523 5401.675944,7412.073316 5387.072893,7407.982759 5369.048393,7401.633810 5355.811227,7395.920941 5334.565326,7385.928726 5319.995424,7404.505244 5308.988338,7419.065551 5308.219481,7422.792207 5308.366531,7426.111545 5310.999163,7433.509118 5318.904336,7454.912286 5322.765120,7471.653460 5324.892235,7478.533600 5327.613148,7482.582069 5331.155552,7484.547546 5330.032675,7492.232149 5331.288690,7498.628794"/>
    <poly id="101082802" type="landuse" color="194,194,130" fill="1" layer="-3.00" shape="5271.462192,7449.550234 5282.995766,7450.159115 5297.485419,7451.218080 5297.541917,7457.052810 5305.444459,7457.255516 5308.644150,7456.152490 5311.784048,7452.927992 5307.854654,7443.459679 5301.030068,7427.046894 5298.908497,7421.867517 5298.960094,7419.153263 5300.274909,7416.698717 5295.725221,7412.797767 5282.143110,7401.659765 5289.548394,7392.695562 5310.250530,7367.641359 5323.833009,7378.790522 5306.550955,7399.699601 5311.184813,7403.175409 5324.165936,7387.151123 5326.124215,7384.687093 5328.332634,7381.636960 5329.364648,7379.002484 5329.431552,7376.765782 5328.704212,7374.409990 5326.486309,7371.056912 5309.534348,7355.201898 5297.568734,7340.599107 5287.552118,7325.533690 5283.317413,7317.475934 5280.205334,7309.104292 5278.366613,7302.326097 5274.486127,7289.554417 5271.524715,7276.219673 5270.835613,7263.101195 5269.645396,7256.980380 5265.803465,7253.045655 5261.911047,7252.114198 5257.760829,7252.547302 5254.452309,7255.343649 5252.610324,7259.149155 5252.755157,7263.924920 5252.892603,7268.978851 5254.468361,7310.284431 5256.942151,7360.799655 5258.650033,7406.992584 5260.705334,7448.004879 5271.462192,7449.550234"/>
    <poly id="101082810" type="landuse" color="194,194,130" fill="1" layer="-3.00" shape="5487.776222,7417.966744 5482.167879,7418.157331 5473.534135,7418.277983 5465.916226,7418.821941 5464.910974,7420.766270 5464.309816,7424.643177 5462.435785,7427.449102 5460.463717,7430.247047 5457.225243,7432.685304 5451.538846,7434.001252 5451.195840,7438.814861 5433.984067,7437.231253 5417.735541,7434.683009 5409.013044,7432.794371 5407.772927,7438.092508 5410.214068,7438.748098 5393.030090,7511.337712 5390.685270,7510.890273 5389.387532,7516.423721 5372.256909,7512.025029 5351.800185,7506.054183 5331.288690,7498.628794 5327.987855,7497.845123 5330.038500,7509.207950 5325.275722,7518.243131 5319.136180,7522.708763 5311.848073,7524.387412 5303.591106,7522.784170 5297.392095,7518.269014 5294.009188,7511.106704 5291.542112,7500.991233 5281.934790,7500.987677 5280.980828,7484.942732 5268.888877,7484.707496 5269.152520,7471.569612 5270.935727,7459.316901 5271.462192,7449.550234 5260.705334,7448.004879 5261.670826,7477.890395 5265.777700,7503.072753 5269.694263,7518.244591 5274.287183,7535.707147 5281.102944,7552.353649 5285.420647,7566.567680 5289.814037,7569.662067 5294.894110,7571.044645 5300.074775,7570.734187 5313.977368,7562.884847 5326.415555,7557.906207 5337.991807,7554.255908 5348.083510,7553.866042 5355.300892,7555.069052 5362.492623,7557.506902 5371.429855,7562.034492 5393.437940,7577.271939 5399.667820,7580.718934 5404.975914,7580.571234 5410.090591,7579.217954 5414.759865,7576.678278 5427.549951,7557.236193 5423.288952,7551.402651 5422.405806,7513.376727 5422.072642,7470.130348 5447.261890,7469.424136 5451.863189,7463.484804 5457.681513,7461.708827 5473.357980,7461.407231 5520.576023,7460.541091 5520.629446,7452.023612 5518.235098,7451.811174 5515.730241,7450.946358 5513.525410,7449.271506 5512.403207,7447.306318 5511.491197,7445.034240 5511.042797,7442.480516 5511.582152,7439.472733 5513.013455,7436.836630 5515.543704,7434.165365 5512.730345,7431.553904 5507.112347,7428.131692 5497.265043,7423.177236 5490.374548,7418.950849 5487.776222,7417.966744"/>
    <poly id="101082815" type="landuse" color="194,194,130" fill="1" layer="-3.00" shape="5233.572685,7632.475090 5249.477655,7658.646868 5265.381015,7682.228413 5282.078139,7703.883516 5300.919827,7727.371007 5324.080806,7754.700171 5344.077773,7778.395342 5471.676717,7928.505874 5495.146078,7899.572601 5559.636707,7819.043782 5506.775454,7800.335141 5446.926764,7765.208092 5419.508439,7740.538445 5402.894743,7726.562363 5385.748448,7710.969139 5364.851430,7689.448289 5345.560836,7666.441930 5295.030180,7600.478688 5290.090668,7597.123861 5284.424648,7596.527145 5279.643664,7597.358440 5238.834570,7618.932479 5233.572685,7632.475090"/>
    <poly id="101082823" type="water" color="181,209,209" fill="1" layer="-4.00" shape="5689.084018,7861.762454 5685.875269,7862.832250 5680.759461,7874.846750 5677.230777,7882.219107 5674.572702,7889.552509 5673.184466,7897.101002 5673.968071,7904.024185 5676.628378,7910.520489 5683.714732,7924.712878 5688.398854,7926.719832 5703.525125,7931.161086 5702.241153,7934.326068 5700.700919,7937.121259 5700.035896,7940.021873 5700.049776,7944.023616 5701.784413,7948.837478 5704.774691,7953.677897 5708.539029,7959.282887 5714.303321,7962.200281 5718.830511,7966.435707 5723.802349,7968.778117 5725.280140,7967.852613 5726.219594,7966.399579 5721.129818,7959.858644 5715.506144,7954.713312 5720.175688,7949.639107 5721.272713,7952.349978 5723.395091,7956.039730 5728.166353,7962.557498 5733.130115,7962.098643 5733.578218,7959.293905 5725.649012,7948.552511 5725.782685,7920.366185 5724.061055,7917.997681 5721.391797,7916.826778 5716.605931,7916.479514 5707.029989,7916.163117 5701.837187,7913.027345 5698.506004,7907.464093 5698.179591,7903.116594 5699.986233,7899.479095 5702.589182,7896.027363 5708.436185,7894.139489 5715.259361,7893.220955 5712.766645,7898.336735 5712.134387,7903.281861 5713.066329,7907.710054 5716.190976,7911.401112 5721.878663,7912.431043 5726.998866,7911.767075 5731.858899,7910.611156 5737.122978,7908.330605 5732.101673,7903.677392 5726.780742,7900.356705 5720.724937,7895.458643 5726.895799,7890.447620 5726.599331,7881.174253 5715.435327,7877.062066 5716.719211,7872.874311 5721.800085,7871.488982 5725.873296,7869.168677 5727.628784,7863.420559 5730.712944,7858.708332 5736.703966,7856.226670 5740.392263,7855.119334 5740.216480,7852.679175 5736.720948,7852.679747 5729.022064,7849.146029 5726.007359,7840.993460 5718.407162,7840.547173 5712.887176,7842.980440 5707.892458,7846.041714 5705.079352,7850.311715 5704.086589,7856.469023 5703.663697,7863.375197 5705.865702,7866.751119 5708.893596,7868.944449 5709.262616,7871.311727 5707.860792,7874.613881 5689.084018,7861.762454"/>
    <poly id="101082826" type="building" color="255,230,230" fill="1" layer="-1.00" shape="5268.888877,7484.707496 5280.980828,7484.942732 5298.813135,7485.294298 5299.076836,7472.156417 5269.152520,7471.569612 5268.888877,7484.707496"/>
    <poly id="101082826#1" type="leisure" color="207,245,201" fill="1" layer="-2.00" shape="5268.888877,7484.707496 5280.980828,7484.942732 5298.813135,7485.294298 5299.076836,7472.156417 5269.152520,7471.569612 5268.888877,7484.707496"/>
    <poly id="101082826#2" type="sport" color="79,230,125" fill="1" layer="-2.00" shape="5268.888877,7484.707496 5280.980828,7484.942732 5298.813135,7485.294298 5299.076836,7472.156417 5269.152520,7471.569612 5268.888877,7484.707496"/>
    <poly id="101082827" type="forest" color="140,196,107" fill="1" layer="-4.00" shape="5471.676717,7928.505874 5534.781486,8000.248973 5603.262590,7970.109360 5634.022662,7970.915322 5639.484855,7941.457941 5654.433158,7943.136599 5647.746193,7970.732095 5687.044297,7970.231338 5688.604936,7963.233194 5690.579441,7954.398598 5666.676149,7922.133803 5659.529995,7908.365795 5656.834312,7895.922933 5663.514687,7871.429362 5667.771952,7856.774177 5663.101136,7844.483412 5559.636707,7819.043782 5495.146078,7899.572601 5471.676717,7928.505874"/>
    <poly id="101086040" type="landuse" color="194,194,130" fill="1" layer="-3.00" shape="5659.068278,7996.350870 5589.933396,7996.627817 5557.160414,8025.602741 5598.657417,8054.113685 5638.020659,8057.701656 5678.294516,8055.880012 5680.939175,8036.918455 5667.248215,8023.593198 5659.068278,7996.350870"/>
    <poly id="101086043" type="water" color="181,209,209" fill="1" layer="-4.00" shape="6804.516626,7138.175706 6817.389027,7272.093562 6843.601407,7285.356367 6911.626442,7284.071746 6906.963126,7184.288970 6894.099966,7175.693102 6875.099860,7124.780826 6804.516626,7138.175706"/>
    <poly id="101086045" type="water" color="181,209,209" fill="1" layer="-4.00" shape="6926.106771,7091.553590 6930.859849,7175.969757 6917.252529,7182.927995 6921.206271,7284.489815 7227.702917,7276.576739 7224.965105,7190.329030"/>
    <poly id="101086050" type="forest" color="140,196,107" fill="1" layer="-4.00" shape="6599.405521,7981.840263 6670.500345,8139.651579 6733.389118,8120.863084 6677.631670,7996.892511 6659.198105,7981.181669 6625.261440,7972.712525 6590.593570,7962.265753 6599.405521,7981.840263"/>
    <poly id="101086056" type="water" color="181,209,209" fill="1" layer="-4.00" shape="6766.026107,7924.886733 6740.083738,7944.622347 6702.354443,7959.841698 6767.447674,8114.242966 6775.026434,8132.211575 6808.153449,8210.789137 6851.368306,8204.900883 6901.764018,8241.373989 6908.070894,8236.015111 6906.218588,8220.810298 6880.343527,8183.201513 6882.458824,8163.890613 6977.025561,8122.796739 7014.049983,8149.245720 7055.959635,8149.703642 7059.934733,8122.751914 7115.858227,8129.357312 7119.898670,8183.191020 7138.142233,8178.353649 7140.787618,8159.548540 7442.739983,8156.300291 7447.724319,8081.491571 7505.336886,8049.904194 7494.591798,8030.945849 7398.873345,7955.985123 7329.610720,7866.956748 7284.490904,7665.547905 6992.372053,7670.223390 6974.072340,7670.515977 6842.464550,7672.632618 6842.096917,7693.866761 6876.020103,7696.756723 6914.212456,7797.530099 6880.027504,7924.495461 6860.538497,7932.975021 6845.804712,7943.915899 6819.694644,7954.029162 6799.518735,7971.902441 6780.157950,7947.015857 6773.037721,7921.439693 6766.026107,7924.886733"/>
    <poly id="101086062" type="water" color="181,209,209" fill="1" layer="-4.00" shape="6821.813612,7314.108681 6821.976393,7347.154482 6822.053256,7362.638083 6821.016801,7481.979208 6829.195226,7481.896967 6829.205845,7476.338105 6888.122888,7475.687426 6965.228293,7637.601617 6966.415821,7640.098555 7042.767532,7640.184537 7039.080048,7534.389784 7076.182858,7532.699597 7080.679283,7519.572072 7059.612525,7495.105758 7096.379360,7468.980045 7228.244372,7451.241004 7352.373861,7408.492172 7217.293622,7405.063985 7175.136347,7395.407746 7097.832195,7394.149717 6939.245462,7396.454124 6904.041799,7314.629025 6898.102753,7315.951778 6821.813612,7314.108681"/>
    <poly id="101086067" type="landuse" color="194,194,130" fill="1" layer="-3.00" shape="6062.206455,8309.836221 6060.047904,8223.591578 6059.465791,8200.253031 6058.326861,8040.024595 6057.903909,8026.775342 6055.807622,8017.770671 6044.258359,8014.337302 5845.369271,8002.657602 5742.295672,7999.025947 5659.068278,7996.350870 5589.933396,7996.627817 5557.160414,8025.602741 5552.241828,8019.323259 5560.717458,8003.843742 5574.354328,7996.114558 5589.058230,7991.175036 5609.651409,7989.237794 5670.145176,7988.826045 5755.699646,7989.103383 6017.844751,8000.361436 6047.402032,8002.297128 6059.071663,8006.182463 6068.735969,8014.122884 6072.613664,8021.503177 6073.450265,8027.802127 6075.491690,8133.360955 6083.743809,8148.116806 6095.421437,8160.940115 6104.737194,8167.413116 6117.864931,8179.211867 6122.425662,8189.872172 6124.060012,8198.958303 6123.260401,8286.486852 6122.719690,8300.689585 6121.638416,8304.337167 6119.436065,8308.342927 6116.970472,8306.398300 6114.950613,8308.208160 6112.518815,8309.619834 6108.945369,8310.489856 6062.206455,8309.836221"/>
    <poly id="101086070" type="landuse" color="194,194,130" fill="1" layer="-3.00" shape="6090.916895,8136.726231 6180.151279,8134.945794 6175.219983,7925.478483 6173.467170,7917.785766 6168.654809,7908.434157 6158.163889,7894.505601 6142.802696,7884.990323 6128.185356,7883.211099 6113.506706,7887.425999 6100.241448,7896.609653 6090.848427,7908.915949 6086.753401,7922.298281 6090.916895,8136.726231"/>
    <poly id="101086074" type="water" color="181,209,209" fill="0" layer="-4.00" shape="6234.838224,8311.675584 6465.434060,8307.992215 6478.284153,8307.782856 6586.810044,8196.534342 6665.816164,8155.286790 6738.348701,8133.589935"/>
    <poly id="101086075" type="landuse" color="194,194,130" fill="1" layer="-3.00" shape="6773.037721,7921.439693 6780.157950,7947.015857 6799.518735,7971.902441 6819.694644,7954.029162 6845.804712,7943.915899 6860.538497,7932.975021 6880.027504,7924.495461 6914.212456,7797.530099 6876.020103,7696.756723 6842.096917,7693.866761 6833.730185,7727.472907 6833.198829,7800.173107 6827.589523,7828.755601 6818.742886,7855.462245 6807.943779,7877.139404 6794.722411,7896.692468 6773.037721,7921.439693"/>
    <poly id="101086079" type="water" color="181,209,209" fill="1" layer="-4.00" shape="6224.147411,8098.367606 6230.626679,8301.482116 6476.486799,8299.702406 6484.691534,8289.224357 6495.159033,8273.048970 6534.599884,8233.104957 6559.391900,8208.002170 6579.400539,8187.732121 6658.353347,8144.551813 6594.050757,7995.862665 6576.276676,7960.698365 6552.347090,7965.840604 6559.067349,7980.623522 6556.702101,7990.014974 6553.602015,8009.335158 6545.986389,8019.905497 6544.979446,8052.755224 6516.635093,8052.301810 6506.093968,8060.041599 6451.346386,8064.053821 6443.103154,8056.712401 6420.106070,8047.128604 6408.362841,8051.916360 6390.728415,8062.317061 6360.759427,8069.686941 6339.659797,8058.286416 6328.731752,8048.773948 6306.300411,8042.885600 6300.317936,8047.934544 6301.880222,8057.067467 6305.709484,8096.411136 6224.147411,8098.367606"/>
    <poly id="101086575" type="forest" color="140,196,107" fill="1" layer="-4.00" shape="5084.150540,7111.029581 5190.267205,7114.565871 5192.584282,7206.720115 5101.773477,7208.796611 5127.028974,7341.060386 5135.801533,7385.437141 5144.521296,7424.101337 5151.757360,7457.154420 5157.275679,7476.021383 5167.280084,7507.229232 5177.436593,7530.472278 5196.935970,7568.101808 5214.344202,7599.728379 5230.493648,7606.059151 5270.188564,7586.077168 5274.780758,7582.150209 5276.841910,7577.303779 5276.880493,7570.876789 5266.996604,7547.991756 5261.238025,7529.499291 5256.512748,7510.195522 5253.514169,7490.358400 5250.998637,7455.330794 5237.268869,7410.078852 5227.586343,7388.910577 5188.334965,7383.097663 5159.319112,7366.629029 5138.166068,7324.461150 5139.488573,7292.245493 5162.913017,7261.111397 5217.385713,7272.217490 5220.931359,7206.112066 5227.773707,7145.993281 5244.338259,7084.607006 5187.956100,7053.117213 5170.716430,7054.003115 5148.947757,7047.574538 5112.489487,7025.997123 5086.698036,6985.089728 5084.211858,6975.408492 5069.295382,6917.343305 5080.566873,6861.696007 5096.464515,6845.366626 5115.782871,6846.770804 5175.400172,6880.991365 5178.122382,6888.886308 5204.907833,6904.103648 5212.625454,6897.241665 5221.727823,6881.964070 5209.745255,6873.220692 5147.561374,6844.351646 5079.250145,6822.905732 5031.730150,6832.800375 5038.620703,6860.895056 5066.417442,7012.888126 5084.150540,7111.029581"/>
    <poly id="101088324" type="parking" color="184,184,179" fill="1" layer="-1.00" shape="6983.014004,8183.538903 7055.569120,8184.334508 7055.959635,8149.703642 7014.049983,8149.245720 6983.404153,8148.908019 6983.014004,8183.538903"/>
    <poly id="101088332" type="parking" color="184,184,179" fill="1" layer="-1.00" shape="7101.031502,8253.794394 7113.164272,8254.087060 7112.715261,8272.266559 7118.871337,8272.415607 7120.495172,8206.840230 7102.206184,8206.398507 7101.031502,8253.794394"/>
    <poly id="101088335" type="landuse" color="194,194,130" fill="1" layer="-3.00" shape="7055.569120,8184.334508 7055.799072,8189.263166 7120.488882,8191.254352 7119.898670,8183.191020 7115.858227,8129.357312 7059.934733,8122.751914 7055.959635,8149.703642 7055.569120,8184.334508"/>
    <poly id="101088340" type="landuse" color="194,194,130" fill="1" layer="-3.00" shape="6908.070894,8236.015111 6915.059303,8247.732599 6940.199570,8245.332346 6942.248818,8185.501921 6983.014004,8183.538903 6983.404153,8148.908019 7014.049983,8149.245720 6977.025561,8122.796739 6882.458824,8163.890613 6880.343527,8183.201513 6906.218588,8220.810298 6908.070894,8236.015111"/>
    <poly id="101088342" type="parking" color="184,184,179" fill="1" layer="-1.00" shape="6959.246737,8292.174329 7091.934362,8295.961311 7092.869391,8263.847836 7103.136488,8264.144176 7103.320754,8257.634857 7038.154866,8255.770176 7037.954715,8262.546815 7030.223861,8262.325602 7029.621630,8283.111379 7015.032277,8282.685722 7015.403462,8269.755918 6959.942051,8268.172744 6959.246737,8292.174329"/>
    <poly id="101260380" type="landuse" color="194,194,130" fill="1" layer="-3.00" shape="5998.224789,7508.086980 5997.820498,7512.268816 5998.480831,7516.872464 6000.211740,7520.808257 6002.894002,7524.936020 6006.673725,7528.217195 6018.516329,7528.561743 6013.773559,7524.722097 6007.810332,7518.642403 6006.371533,7510.583941 6008.705142,7501.493441 6009.947674,7499.830671 6012.250578,7498.456447 6016.665035,7497.881953 6012.442256,7495.782215 6008.816532,7493.496661 6006.946732,7493.122785 6004.134509,7494.113054 6002.023129,7496.381654 6000.389571,7499.068569 5999.286622,7503.061484 5998.670255,7505.960501 5998.224789,7508.086980"/>
    <poly id="101260387" type="tourism" color="207,245,201" fill="1" layer="-2.00" shape="6018.516329,7528.561743 6021.898040,7528.309265 6024.378984,7527.407398 6025.938669,7526.490472 6026.939503,7525.424630 6028.518250,7523.573256 6029.219261,7521.538677 6029.422206,7517.685669 6028.241983,7513.131966 6026.790665,7508.764791 6025.009224,7506.053491 6022.557065,7502.752160 6019.907808,7500.168618 6016.665035,7497.881953 6012.250578,7498.456447 6009.947674,7499.830671 6008.705142,7501.493441 6006.371533,7510.583941 6007.810332,7518.642403 6013.773559,7524.722097 6018.516329,7528.561743"/>
    <poly id="101260392" type="landuse" color="194,194,130" fill="1" layer="-3.00" shape="5934.684109,7532.372420 5933.513646,7484.494891 5934.722184,7482.788724 5939.128610,7483.748602 5941.534982,7484.338785 5943.928265,7485.029441 5947.045808,7487.731407 5949.769896,7492.146862 5952.897858,7502.830609 5956.290210,7508.269738 5961.649957,7512.801143 5969.337425,7516.991415 5976.588718,7519.005544 5981.411312,7519.729817 5983.580214,7520.794516 5985.256124,7522.241821 5986.177584,7525.580895 5986.223957,7531.627140 5934.684109,7532.372420"/>
    <poly id="101260401" type="landuse" color="194,194,130" fill="1" layer="-3.00" shape="6079.504285,7508.538613 6090.523653,7508.109127 6091.982787,7506.083713 6091.360039,7501.634500 6091.584961,7497.702975 6092.539668,7493.659224 6093.853954,7489.392773 6093.730608,7485.272254 6092.582346,7482.229452 6090.411567,7478.552254 6086.771299,7475.044240 6082.978203,7473.130854 6078.865591,7472.950824 6079.504285,7508.538613"/>
    <poly id="101260412" type="landuse" color="194,194,130" fill="1" layer="-3.00" shape="6023.340151,7447.386050 6018.220973,7447.582818 6002.896001,7448.172103 6000.836862,7448.248959 5999.401763,7449.495426 5998.391051,7451.273084 5997.936006,7453.099706 5998.335692,7454.899039 5999.412409,7456.209838 6000.604124,7457.038929 6002.336614,7457.450539 6011.495050,7455.646230 6021.066600,7455.296209 6024.647614,7455.159661 6029.181749,7455.014925 6029.170123,7449.289971 6023.333538,7449.476283 6023.340151,7447.386050"/>
    <poly id="101260424" type="landuse" color="194,194,130" fill="1" layer="-3.00" shape="6123.030429,7491.074280 6124.897253,7496.973494 6125.213211,7503.555869 6127.811622,7519.359334 6133.053074,7515.845841 6136.243485,7510.619051 6136.660511,7504.024407 6134.899521,7498.121814 6131.098234,7494.163114 6126.700266,7491.168410 6123.030429,7491.074280"/>