<?xml version="1.0" encoding="UTF-8"?>
<configuration xmlns:xsi="http://www.w3.org/2001/XMLSchema-instance" xsi:noNamespaceSchemaLocation="http://sumo.dlr.de/xsd/duarouterConfiguration.xsd">
    <input>
        <net-file value="Roc.net.xml"/>
        <route-files value="cars.rou.xml"/>
    </input>
    <time>
        <begin value="0"/>
        <end value="1000"/>
    </time>
    <output>
        <tripinfo-output value="output_tripinfo.xml"/>
    </output>
    <report>
        <no-warnings value="true"/>
    </report>
</configuration>
