<?xml version="1.0" encoding="UTF-8"?>

<!-- generated on 2024-11-11 18:07:48.783260 by randomTrips.py v1_20_0+2102-a708d317aaa
<configuration>
    <net-file value="Roc.net.xml"/>
    <route-file value="peds.rou.xml"/>
    <trip-attributes value="type=&quot;pedestrian&quot; departSpeed=&quot;max&quot; departLane=&quot;best&quot;"/>
    <length value="True"/>
    <max-distance value="800.0"/>
    <end value="1000.0"/>
    <period value="1.4"/>
</configuration>
-->

<routes xmlns:xsi="http://www.w3.org/2001/XMLSchema-instance" xsi:noNamespaceSchemaLocation="http://sumo.dlr.de/xsd/routes_file.xsd">
    <trip id="0" depart="0.00" from="413399527#2" to="-15276248#11" type="pedestrian" departSpeed="max" departLane="best"/>
    <trip id="1" depart="1.40" from="674166094#2" to="-613230853#0" type="pedestrian" departSpeed="max" departLane="best"/>
    <trip id="2" depart="2.80" from="-180126048#0" to="-19930576#3" type="pedestrian" departSpeed="max" departLane="best"/>
    <trip id="3" depart="4.20" from="20124217#0" to="-674166079#2" type="pedestrian" departSpeed="max" departLane="best"/>
    <trip id="4" depart="5.60" from="76536995#3" to="-19930608#0" type="pedestrian" departSpeed="max" departLane="best"/>
    <trip id="5" depart="7.00" from="-674166074#1" to="-67044819#0" type="pedestrian" departSpeed="max" departLane="best"/>
    <trip id="6" depart="8.40" from="926757301" to="926757300" type="pedestrian" departSpeed="max" departLane="best"/>
    <trip id="7" depart="9.80" from="-20116461#3" to="-20116842" type="pedestrian" departSpeed="max" departLane="best"/>
    <trip id="8" depart="11.20" from="-20118794#4" to="-20119047#0" type="pedestrian" departSpeed="max" departLane="best"/>
    <trip id="9" depart="12.60" from="-524116520" to="-139456715#4" type="pedestrian" departSpeed="max" departLane="best"/>
    <trip id="10" depart="14.00" from="-312525369#25" to="379738162#16" type="pedestrian" departSpeed="max" departLane="best"/>
    <trip id="11" depart="15.40" from="542123160#1" to="20124217#1" type="pedestrian" departSpeed="max" departLane="best"/>
    <trip id="12" depart="16.80" from="-101081088#4" to="-301941898#0" type="pedestrian" departSpeed="max" departLane="best"/>
    <trip id="13" depart="18.20" from="-15089739#9" to="15089739#6" type="pedestrian" departSpeed="max" departLane="best"/>
    <trip id="14" depart="19.60" from="20121037#18" to="-21232562#3" type="pedestrian" departSpeed="max" departLane="best"/>
    <trip id="15" depart="21.00" from="-19930608#2" to="-124086106#12" type="pedestrian" departSpeed="max" departLane="best"/>
    <trip id="16" depart="22.40" from="20119055" to="20122138#3" type="pedestrian" departSpeed="max" departLane="best"/>
    <trip id="17" depart="23.80" from="20128453#28" to="672778982" type="pedestrian" departSpeed="max" departLane="best"/>
    <trip id="18" depart="25.20" from="674166079#1" to="954999067#1" type="pedestrian" departSpeed="max" departLane="best"/>
    <trip id="19" depart="26.60" from="911581869" to="605212555#1" type="pedestrian" departSpeed="max" departLane="best"/>
    <trip id="20" depart="28.00" from="1097875870#0" to="-20118467#0" type="pedestrian" departSpeed="max" departLane="best"/>
    <trip id="21" depart="29.40" from="-390634953#5" to="20135954" type="pedestrian" departSpeed="max" departLane="best"/>
    <trip id="22" depart="30.80" from="390634953#12" to="-124086106#12" type="pedestrian" departSpeed="max" departLane="best"/>
    <trip id="23" depart="32.20" from="20139428" to="-17821059#0" type="pedestrian" departSpeed="max" departLane="best"/>
    <trip id="24" depart="33.60" from="678006257#2" to="-20123316#1" type="pedestrian" departSpeed="max" departLane="best"/>
    <trip id="25" depart="35.00" from="674154676#0" to="1097875872" type="pedestrian" departSpeed="max" departLane="best"/>
    <trip id="26" depart="36.40" from="674166078#1" to="38654522#0" type="pedestrian" departSpeed="max" departLane="best"/>
    <trip id="27" depart="37.80" from="20128629#1" to="20128629#1" type="pedestrian" departSpeed="max" departLane="best"/>
    <trip id="28" depart="39.20" from="674154676#0" to="-124086106#12" type="pedestrian" departSpeed="max" departLane="best"/>
    <trip id="29" depart="40.60" from="70260003#0" to="-1308547636#1" type="pedestrian" departSpeed="max" departLane="best"/>
    <trip id="30" depart="42.00" from="593517664#7" to="-139602835#1" type="pedestrian" departSpeed="max" departLane="best"/>
    <trip id="31" depart="43.40" from="-674154676#0" to="-20123316#2" type="pedestrian" departSpeed="max" departLane="best"/>
    <trip id="32" depart="44.80" from="-139602835#2" to="36924531" type="pedestrian" departSpeed="max" departLane="best"/>
    <trip id="33" depart="46.20" from="1308529304#1" to="-41163302#7" type="pedestrian" departSpeed="max" departLane="best"/>
    <trip id="34" depart="47.60" from="1097875871" to="-268388495#2" type="pedestrian" departSpeed="max" departLane="best"/>
    <trip id="35" depart="49.00" from="-20136552#34" to="20128453#30" type="pedestrian" departSpeed="max" departLane="best"/>
    <trip id="36" depart="50.40" from="21232557#15" to="-21232557#9" type="pedestrian" departSpeed="max" departLane="best"/>
    <trip id="37" depart="51.80" from="542123162#5" to="-20124217#4" type="pedestrian" departSpeed="max" departLane="best"/>
    <trip id="38" depart="53.20" from="20139428" to="20125860#2" type="pedestrian" departSpeed="max" departLane="best"/>
    <trip id="39" depart="54.60" from="124086106#12" to="301941898#0" type="pedestrian" departSpeed="max" departLane="best"/>
    <trip id="40" depart="56.00" from="-138849679#7" to="23746979#2" type="pedestrian" departSpeed="max" departLane="best"/>
    <trip id="41" depart="57.40" from="19930576#3" to="19930576#3" type="pedestrian" departSpeed="max" departLane="best"/>
    <trip id="42" depart="58.80" from="23746976" to="139602835#2" type="pedestrian" departSpeed="max" departLane="best"/>
    <trip id="43" depart="60.20" from="36924531" to="-139602835#2" type="pedestrian" departSpeed="max" departLane="best"/>
    <trip id="44" depart="61.60" from="23703755#2" to="20128453#17" type="pedestrian" departSpeed="max" departLane="best"/>
    <trip id="45" depart="63.00" from="41405321#19" to="379738160#3" type="pedestrian" departSpeed="max" departLane="best"/>
    <trip id="46" depart="64.40" from="20127978#5" to="20141218#1" type="pedestrian" departSpeed="max" departLane="best"/>
    <trip id="47" depart="65.80" from="-20129337#3" to="20121851#0" type="pedestrian" departSpeed="max" departLane="best"/>
    <trip id="48" depart="67.20" from="20136776#0" to="23746965#0" type="pedestrian" departSpeed="max" departLane="best"/>
    <trip id="49" depart="68.60" from="-542123160#2" to="-873400981#0" type="pedestrian" departSpeed="max" departLane="best"/>
    <trip id="50" depart="70.00" from="139602835#2" to="-139602835#2" type="pedestrian" departSpeed="max" departLane="best"/>
    <trip id="51" depart="71.40" from="124086106#12" to="-124086106#6" type="pedestrian" departSpeed="max" departLane="best"/>
    <trip id="52" depart="72.80" from="-20122138#4" to="910676333#1" type="pedestrian" departSpeed="max" departLane="best"/>
    <trip id="53" depart="74.20" from="20121851#0" to="20124217#6" type="pedestrian" departSpeed="max" departLane="best"/>
    <trip id="54" depart="75.60" from="1308547636#2" to="672778980" type="pedestrian" departSpeed="max" departLane="best"/>
    <trip id="55" depart="77.00" from="20118788#3" to="20117987" type="pedestrian" departSpeed="max" departLane="best"/>
    <trip id="56" depart="78.40" from="40597180#4" to="1245678535#0" type="pedestrian" departSpeed="max" departLane="best"/>
    <trip id="57" depart="79.80" from="20128453#7" to="19930577#1" type="pedestrian" departSpeed="max" departLane="best"/>
    <trip id="58" depart="81.20" from="301941898#0" to="1097875872" type="pedestrian" departSpeed="max" departLane="best"/>
    <trip id="59" depart="82.60" from="139602835#2" to="23746979#1" type="pedestrian" departSpeed="max" departLane="best"/>
    <trip id="60" depart="84.00" from="613230853#0" to="-674166094#2" type="pedestrian" departSpeed="max" departLane="best"/>
    <trip id="61" depart="85.40" from="36924527" to="709995751" type="pedestrian" departSpeed="max" departLane="best"/>
    <trip id="62" depart="86.80" from="20129894#6" to="379738162#16" type="pedestrian" departSpeed="max" departLane="best"/>
    <trip id="63" depart="88.20" from="-1308529300" to="-1098370053#0" type="pedestrian" departSpeed="max" departLane="best"/>
    <trip id="64" depart="89.60" from="-180904959#1" to="180904959#1" type="pedestrian" departSpeed="max" departLane="best"/>
    <trip id="65" depart="91.00" from="20135107#4" to="20127334#5" type="pedestrian" departSpeed="max" departLane="best"/>
    <trip id="66" depart="92.40" from="-20113104#2" to="20113379#1" type="pedestrian" departSpeed="max" departLane="best"/>
    <trip id="67" depart="93.80" from="-674166092#18" to="138849679#7" type="pedestrian" departSpeed="max" departLane="best"/>
    <trip id="68" depart="95.20" from="23746970" to="-139602835#2" type="pedestrian" departSpeed="max" departLane="best"/>
    <trip id="69" depart="96.60" from="1308529313" to="20127978#5" type="pedestrian" departSpeed="max" departLane="best"/>
    <trip id="70" depart="98.00" from="20118788#0" to="-20130839#0" type="pedestrian" departSpeed="max" departLane="best"/>
    <trip id="71" depart="99.40" from="124086106#12" to="1097875869#1" type="pedestrian" departSpeed="max" departLane="best"/>
    <trip id="72" depart="100.80" from="124086104#1" to="-20123316#1" type="pedestrian" departSpeed="max" departLane="best"/>
    <trip id="73" depart="102.20" from="323059478" to="122189422#0" type="pedestrian" departSpeed="max" departLane="best"/>
    <trip id="74" depart="103.60" from="-21232557#14" to="-21232557#15" type="pedestrian" departSpeed="max" departLane="best"/>
    <trip id="75" depart="105.00" from="-390634953#2" to="20116112#1" type="pedestrian" departSpeed="max" departLane="best"/>
    <trip id="76" depart="106.40" from="-786277484#0" to="-1011944411#0" type="pedestrian" departSpeed="max" departLane="best"/>
    <trip id="77" depart="107.80" from="-593517664#11" to="593517664#11" type="pedestrian" departSpeed="max" departLane="best"/>
    <trip id="78" depart="109.20" from="-1098370053#0" to="20136531#2" type="pedestrian" departSpeed="max" departLane="best"/>
    <trip id="79" depart="110.60" from="1308529295#1" to="-1098370048#0" type="pedestrian" departSpeed="max" departLane="best"/>
    <trip id="80" depart="112.00" from="20113104#1" to="180904959#1" type="pedestrian" departSpeed="max" departLane="best"/>
    <trip id="81" depart="113.40" from="-139456715#0" to="-21232553#3" type="pedestrian" departSpeed="max" departLane="best"/>
    <trip id="82" depart="114.80" from="23746970" to="139602835#2" type="pedestrian" departSpeed="max" departLane="best"/>
    <trip id="83" depart="116.20" from="20131827#0" to="207079110#27" type="pedestrian" departSpeed="max" departLane="best"/>
    <trip id="84" depart="117.60" from="1026226755#3" to="20122138#0" type="pedestrian" departSpeed="max" departLane="best"/>
    <trip id="85" depart="119.00" from="20136552#26" to="-20128453#1" type="pedestrian" departSpeed="max" departLane="best"/>
    <trip id="86" depart="120.40" from="1050092517#1" to="-674154676#1" type="pedestrian" departSpeed="max" departLane="best"/>
    <trip id="87" depart="121.80" from="20136552#8" to="-20136552#34" type="pedestrian" departSpeed="max" departLane="best"/>
    <trip id="88" depart="123.20" from="38654520" to="-20140241#1" type="pedestrian" departSpeed="max" departLane="best"/>
    <trip id="89" depart="124.60" from="605212555#1" to="21232557#15" type="pedestrian" departSpeed="max" departLane="best"/>
    <trip id="90" depart="126.00" from="36924394" to="-139602835#2" type="pedestrian" departSpeed="max" departLane="best"/>
    <trip id="91" depart="127.40" from="-124086106#12" to="124086106#12" type="pedestrian" departSpeed="max" departLane="best"/>
    <trip id="92" depart="128.80" from="-20124306" to="-20133768#9" type="pedestrian" departSpeed="max" departLane="best"/>
    <trip id="93" depart="130.20" from="323059478" to="648086228#1" type="pedestrian" departSpeed="max" departLane="best"/>
    <trip id="94" depart="131.60" from="674166094#6" to="-674166094#6" type="pedestrian" departSpeed="max" departLane="best"/>
    <trip id="95" depart="133.00" from="-20124306" to="742157335#1" type="pedestrian" departSpeed="max" departLane="best"/>
    <trip id="96" depart="134.40" from="-20114342#2" to="207079110#2" type="pedestrian" departSpeed="max" departLane="best"/>
    <trip id="97" depart="135.80" from="674166075#2" to="674166078#0" type="pedestrian" departSpeed="max" departLane="best"/>
    <trip id="98" depart="137.20" from="180904959#0" to="369198747#0" type="pedestrian" departSpeed="max" departLane="best"/>
    <trip id="99" depart="138.60" from="139602835#2" to="36924394" type="pedestrian" departSpeed="max" departLane="best"/>
    <trip id="100" depart="140.00" from="-713043015#0" to="873400981#3" type="pedestrian" departSpeed="max" departLane="best"/>
    <trip id="101" depart="141.40" from="609460109" to="-139456715#11" type="pedestrian" departSpeed="max" departLane="best"/>
    <trip id="102" depart="142.80" from="-207079110#18" to="1308529312#7" type="pedestrian" departSpeed="max" departLane="best"/>
    <trip id="103" depart="144.20" from="-21232553#3" to="-742157335#16" type="pedestrian" departSpeed="max" departLane="best"/>
    <trip id="104" depart="145.60" from="-20136563#1" to="312525369#29" type="pedestrian" departSpeed="max" departLane="best"/>
    <trip id="105" depart="147.00" from="124086106#12" to="390634953#3" type="pedestrian" departSpeed="max" departLane="best"/>
    <trip id="106" depart="148.40" from="-15276248#11" to="20124217#0" type="pedestrian" departSpeed="max" departLane="best"/>
    <trip id="107" depart="149.80" from="-33481938" to="33481938" type="pedestrian" departSpeed="max" departLane="best"/>
    <trip id="108" depart="151.20" from="20116461#3" to="-20122138#0" type="pedestrian" departSpeed="max" departLane="best"/>
    <trip id="109" depart="152.60" from="20136531#2" to="-20118467#3" type="pedestrian" departSpeed="max" departLane="best"/>
    <trip id="110" depart="154.00" from="-20113104#2" to="-20113866#3" type="pedestrian" departSpeed="max" departLane="best"/>
    <trip id="111" depart="155.40" from="20128721" to="-20128721" type="pedestrian" departSpeed="max" departLane="best"/>
    <trip id="112" depart="156.80" from="124086106#12" to="-20132497" type="pedestrian" departSpeed="max" departLane="best"/>
    <trip id="113" depart="158.20" from="20136506#2" to="-20114342#1" type="pedestrian" departSpeed="max" departLane="best"/>
    <trip id="114" depart="159.60" from="70260003#0" to="-379738160#1" type="pedestrian" departSpeed="max" departLane="best"/>
    <trip id="115" depart="161.00" from="20118788#3" to="20130839#0" type="pedestrian" departSpeed="max" departLane="best"/>
    <trip id="116" depart="162.40" from="20118788#0" to="20124306" type="pedestrian" departSpeed="max" departLane="best"/>
    <trip id="117" depart="163.80" from="1308529317#1" to="-1098370046#0" type="pedestrian" departSpeed="max" departLane="best"/>
    <trip id="118" depart="165.20" from="139602835#2" to="20110706" type="pedestrian" departSpeed="max" departLane="best"/>
    <trip id="119" depart="166.60" from="122189422#0" to="-542123162#5" type="pedestrian" departSpeed="max" departLane="best"/>
    <trip id="120" depart="168.00" from="-41405321#19" to="-40597179" type="pedestrian" departSpeed="max" departLane="best"/>
    <trip id="121" depart="169.40" from="124086106#12" to="-124086106#12" type="pedestrian" departSpeed="max" departLane="best"/>
    <trip id="122" depart="170.80" from="20127334#1" to="-674166079#5" type="pedestrian" departSpeed="max" departLane="best"/>
    <trip id="123" depart="172.20" from="-413399523#7" to="390634953#4" type="pedestrian" departSpeed="max" departLane="best"/>
    <trip id="124" depart="173.60" from="122189422#0" to="1272953149#0" type="pedestrian" departSpeed="max" departLane="best"/>
    <trip id="125" depart="175.00" from="-19930576#2" to="124086106#4" type="pedestrian" departSpeed="max" departLane="best"/>
    <trip id="126" depart="176.40" from="-20120605#0" to="20129337#3" type="pedestrian" departSpeed="max" departLane="best"/>
    <trip id="127" depart="177.80" from="-20136639#4" to="38654522#0" type="pedestrian" departSpeed="max" departLane="best"/>
    <trip id="128" depart="179.20" from="-20141568#1" to="20133768#4" type="pedestrian" departSpeed="max" departLane="best"/>
    <trip id="129" depart="180.60" from="-593517664#0" to="20110706" type="pedestrian" departSpeed="max" departLane="best"/>
    <trip id="130" depart="182.00" from="-20122138#3" to="-20133768#9" type="pedestrian" departSpeed="max" departLane="best"/>
    <trip id="131" depart="183.40" from="-672778972" to="76536995#2" type="pedestrian" departSpeed="max" departLane="best"/>
    <trip id="132" depart="184.80" from="-672872064#4" to="20117807#1" type="pedestrian" departSpeed="max" departLane="best"/>
    <trip id="133" depart="186.20" from="-20129337#2" to="-20141568#1" type="pedestrian" departSpeed="max" departLane="best"/>
    <trip id="134" depart="187.60" from="-20133107" to="-20112852" type="pedestrian" departSpeed="max" departLane="best"/>
    <trip id="135" depart="189.00" from="20122138#4" to="-20124217#11" type="pedestrian" departSpeed="max" departLane="best"/>
    <trip id="136" depart="190.40" from="671892434" to="674166075#0" type="pedestrian" departSpeed="max" departLane="best"/>
    <trip id="137" depart="191.80" from="-742157335#18" to="-352624102" type="pedestrian" departSpeed="max" departLane="best"/>
    <trip id="138" depart="193.20" from="-672778976#1" to="-70260003#2" type="pedestrian" departSpeed="max" departLane="best"/>
    <trip id="139" depart="194.60" from="-20135107#5" to="23746965#1" type="pedestrian" departSpeed="max" departLane="best"/>
    <trip id="140" depart="196.00" from="20124217#1" to="20124217#2" type="pedestrian" departSpeed="max" departLane="best"/>
    <trip id="141" depart="197.40" from="38173708" to="323059636" type="pedestrian" departSpeed="max" departLane="best"/>
    <trip id="142" depart="198.80" from="38654522#0" to="-20134269" type="pedestrian" departSpeed="max" departLane="best"/>
    <trip id="143" depart="200.20" from="-20127978#1" to="-20129337#0" type="pedestrian" departSpeed="max" departLane="best"/>
    <trip id="144" depart="201.60" from="-139456715#12" to="-20125037#0" type="pedestrian" departSpeed="max" departLane="best"/>
    <trip id="145" depart="203.00" from="23958814#5" to="-1308547636#0" type="pedestrian" departSpeed="max" departLane="best"/>
    <trip id="146" depart="204.40" from="-542123162#3" to="20116461#3" type="pedestrian" departSpeed="max" departLane="best"/>
    <trip id="147" depart="205.80" from="-67044819#0" to="742157335#3" type="pedestrian" departSpeed="max" departLane="best"/>
    <trip id="148" depart="207.20" from="20141568#1" to="20118788#3" type="pedestrian" departSpeed="max" departLane="best"/>
    <trip id="149" depart="208.60" from="672779043" to="20136552#0" type="pedestrian" departSpeed="max" departLane="best"/>
    <trip id="150" depart="210.00" from="21232562#2" to="605212555#1" type="pedestrian" departSpeed="max" departLane="best"/>
    <trip id="151" depart="211.40" from="-21232557#15" to="-20121037#9" type="pedestrian" departSpeed="max" departLane="best"/>
    <trip id="152" depart="212.80" from="20131275#1" to="-21232562#3" type="pedestrian" departSpeed="max" departLane="best"/>
    <trip id="153" depart="214.20" from="-20116112#1" to="20113379#0" type="pedestrian" departSpeed="max" departLane="best"/>
    <trip id="154" depart="215.60" from="23746979#2" to="947989180" type="pedestrian" departSpeed="max" departLane="best"/>
    <trip id="155" depart="217.00" from="20113600#0" to="390634953#0" type="pedestrian" departSpeed="max" departLane="best"/>
    <trip id="156" depart="218.40" from="20135583#2" to="15276248#7" type="pedestrian" departSpeed="max" departLane="best"/>
    <trip id="157" depart="219.80" from="20128009#0" to="-413399523#12" type="pedestrian" departSpeed="max" departLane="best"/>
    <trip id="158" depart="221.20" from="413399527#2" to="-413399529#1" type="pedestrian" departSpeed="max" departLane="best"/>
    <trip id="159" depart="222.60" from="-672778988#1" to="20136552#9" type="pedestrian" departSpeed="max" departLane="best"/>
    <trip id="160" depart="224.00" from="20116461#2" to="-20119047#0" type="pedestrian" departSpeed="max" departLane="best"/>
    <trip id="161" depart="225.40" from="139456715#6" to="742157335#17" type="pedestrian" departSpeed="max" departLane="best"/>
    <trip id="162" depart="226.80" from="-672778969#2" to="-672778967#2" type="pedestrian" departSpeed="max" departLane="best"/>
    <trip id="163" depart="228.20" from="-672778967#6" to="-742106125#3" type="pedestrian" departSpeed="max" departLane="best"/>
    <trip id="164" depart="229.60" from="1177772074#1" to="-20129337#2" type="pedestrian" departSpeed="max" departLane="best"/>
    <trip id="165" depart="231.00" from="750804181#2" to="750804181#2" type="pedestrian" departSpeed="max" departLane="best"/>
    <trip id="166" depart="232.40" from="671892437" to="21232566#2" type="pedestrian" departSpeed="max" departLane="best"/>
    <trip id="167" depart="233.80" from="671892437" to="-21232566#3" type="pedestrian" departSpeed="max" departLane="best"/>
    <trip id="168" depart="235.20" from="-20118911" to="20128453#26" type="pedestrian" departSpeed="max" departLane="best"/>
    <trip id="169" depart="236.60" from="124086104#3" to="1211206660#1" type="pedestrian" departSpeed="max" departLane="best"/>
    <trip id="170" depart="238.00" from="-20124639#14" to="-124086106#12" type="pedestrian" departSpeed="max" departLane="best"/>
    <trip id="171" depart="239.40" from="20132875#1" to="-20119893#5" type="pedestrian" departSpeed="max" departLane="best"/>
    <trip id="172" depart="240.80" from="-20124217#9" to="-1272953149#0" type="pedestrian" departSpeed="max" departLane="best"/>
    <trip id="173" depart="242.20" from="-295873622#4" to="262898540" type="pedestrian" departSpeed="max" departLane="best"/>
    <trip id="174" depart="243.60" from="-19930577#1" to="1323821738#7" type="pedestrian" departSpeed="max" departLane="best"/>
    <trip id="175" depart="245.00" from="20124217#3" to="15276248#9" type="pedestrian" departSpeed="max" departLane="best"/>
    <trip id="176" depart="246.40" from="20118467#0" to="-124086106#12" type="pedestrian" departSpeed="max" departLane="best"/>
    <trip id="177" depart="247.80" from="-20131275#1" to="23746972" type="pedestrian" departSpeed="max" departLane="best"/>
    <trip id="178" depart="249.20" from="20130276#0" to="742157335#1" type="pedestrian" departSpeed="max" departLane="best"/>
    <trip id="179" depart="250.60" from="23746965#1" to="1308307333#1" type="pedestrian" departSpeed="max" departLane="best"/>
    <trip id="180" depart="252.00" from="-40597180#4" to="413399528#1" type="pedestrian" departSpeed="max" departLane="best"/>
    <trip id="181" depart="253.40" from="20110145" to="457736423#2" type="pedestrian" departSpeed="max" departLane="best"/>
    <trip id="182" depart="254.80" from="-124086106#12" to="124086106#12" type="pedestrian" departSpeed="max" departLane="best"/>
    <trip id="183" depart="256.20" from="-139456715#4" to="524116516#0" type="pedestrian" departSpeed="max" departLane="best"/>
    <trip id="184" depart="257.60" from="-542123160#1" to="20124217#5" type="pedestrian" departSpeed="max" departLane="best"/>
    <trip id="185" depart="259.00" from="-20113618" to="20138341#1" type="pedestrian" departSpeed="max" departLane="best"/>
    <trip id="186" depart="260.40" from="-1308547642#3" to="40597180#4" type="pedestrian" departSpeed="max" departLane="best"/>
    <trip id="187" depart="261.80" from="742157335#16" to="352624102" type="pedestrian" departSpeed="max" departLane="best"/>
    <trip id="188" depart="263.20" from="20131141#2" to="20131141#8" type="pedestrian" departSpeed="max" departLane="best"/>
    <trip id="189" depart="264.60" from="-674166075#3" to="138849679#7" type="pedestrian" departSpeed="max" departLane="best"/>
    <trip id="190" depart="266.00" from="-180126048#0" to="-1308529300" type="pedestrian" departSpeed="max" departLane="best"/>
    <trip id="191" depart="267.40" from="1308307333#1" to="672779042#2" type="pedestrian" departSpeed="max" departLane="best"/>
    <trip id="192" depart="268.80" from="-20120605#0" to="-20135583#4" type="pedestrian" departSpeed="max" departLane="best"/>
    <trip id="193" depart="270.20" from="20110706" to="122189422#0" type="pedestrian" departSpeed="max" departLane="best"/>
    <trip id="194" depart="271.60" from="-20113866#1" to="-20116112#0" type="pedestrian" departSpeed="max" departLane="best"/>
    <trip id="195" depart="273.00" from="-672778967#5" to="20133311#2" type="pedestrian" departSpeed="max" departLane="best"/>
    <trip id="196" depart="274.40" from="23746975" to="-20131275#1" type="pedestrian" departSpeed="max" departLane="best"/>
    <trip id="197" depart="275.80" from="20118788#2" to="-674166075#3" type="pedestrian" departSpeed="max" departLane="best"/>
    <trip id="198" depart="277.20" from="38654510" to="23746981" type="pedestrian" departSpeed="max" departLane="best"/>
    <trip id="199" depart="278.60" from="1190465310" to="-20133107" type="pedestrian" departSpeed="max" departLane="best"/>
    <trip id="200" depart="280.00" from="-33481938" to="33481938" type="pedestrian" departSpeed="max" departLane="best"/>
    <trip id="201" depart="281.40" from="38654524" to="38654523" type="pedestrian" departSpeed="max" departLane="best"/>
    <trip id="202" depart="282.80" from="-20138341#0" to="20135107#4" type="pedestrian" departSpeed="max" departLane="best"/>
    <trip id="203" depart="284.20" from="-542123162#5" to="674166075#2" type="pedestrian" departSpeed="max" departLane="best"/>
    <trip id="204" depart="285.60" from="-20113866#1" to="-180904959#0" type="pedestrian" departSpeed="max" departLane="best"/>
    <trip id="205" depart="287.00" from="-139602835#2" to="23746971" type="pedestrian" departSpeed="max" departLane="best"/>
    <trip id="206" depart="288.40" from="20129337#2" to="-742448140#8" type="pedestrian" departSpeed="max" departLane="best"/>
    <trip id="207" depart="289.80" from="-15089739#6" to="413399523#1" type="pedestrian" departSpeed="max" departLane="best"/>
    <trip id="208" depart="291.20" from="390634953#0" to="-20113866#3" type="pedestrian" departSpeed="max" departLane="best"/>
    <trip id="209" depart="292.60" from="1308529305#0" to="-1098370039" type="pedestrian" departSpeed="max" departLane="best"/>
    <trip id="210" depart="294.00" from="20110455" to="-20131275#0" type="pedestrian" departSpeed="max" departLane="best"/>
    <trip id="211" depart="295.40" from="20122138#2" to="20139447" type="pedestrian" departSpeed="max" departLane="best"/>
    <trip id="212" depart="296.80" from="23746979#2" to="36924531" type="pedestrian" departSpeed="max" departLane="best"/>
    <trip id="213" depart="298.20" from="-124086106#9" to="-124086106#11" type="pedestrian" departSpeed="max" departLane="best"/>
    <trip id="214" depart="299.60" from="-20113104#1" to="-20113866#3" type="pedestrian" departSpeed="max" departLane="best"/>
    <trip id="215" depart="301.00" from="23746977" to="-674166074#3" type="pedestrian" departSpeed="max" departLane="best"/>
    <trip id="216" depart="302.40" from="20132497" to="124086106#10" type="pedestrian" departSpeed="max" departLane="best"/>
    <trip id="217" depart="303.80" from="20131745#16" to="41405321#12" type="pedestrian" departSpeed="max" departLane="best"/>
    <trip id="218" depart="305.20" from="36924531" to="-674166074#0" type="pedestrian" departSpeed="max" departLane="best"/>
    <trip id="219" depart="306.60" from="-1308547639#1" to="41405321#19" type="pedestrian" departSpeed="max" departLane="best"/>
    <trip id="220" depart="308.00" from="-20113600#2" to="20113866#1" type="pedestrian" departSpeed="max" departLane="best"/>
    <trip id="221" depart="309.40" from="41405321#15" to="41405321#6" type="pedestrian" departSpeed="max" departLane="best"/>
    <trip id="222" depart="310.80" from="20124639#14" to="390634953#12" type="pedestrian" departSpeed="max" departLane="best"/>
    <trip id="223" depart="312.20" from="-674154676#2" to="-124086106#5" type="pedestrian" departSpeed="max" departLane="best"/>
    <trip id="224" depart="313.60" from="124086106#12" to="-124086106#7" type="pedestrian" departSpeed="max" departLane="best"/>
    <trip id="225" depart="315.00" from="20133768#7" to="-20133107" type="pedestrian" departSpeed="max" departLane="best"/>
    <trip id="226" depart="316.40" from="-674154668#1" to="40597178#4" type="pedestrian" departSpeed="max" departLane="best"/>
    <trip id="227" depart="317.80" from="-1097875869#0" to="-20135954" type="pedestrian" departSpeed="max" departLane="best"/>
    <trip id="228" depart="319.20" from="20110455" to="23746969" type="pedestrian" departSpeed="max" departLane="best"/>
    <trip id="229" depart="320.60" from="-20135954" to="-124086106#9" type="pedestrian" departSpeed="max" departLane="best"/>
    <trip id="230" depart="322.00" from="-272931651" to="41405321#3" type="pedestrian" departSpeed="max" departLane="best"/>
    <trip id="231" depart="323.40" from="-20129262#5" to="-20130839#0" type="pedestrian" departSpeed="max" departLane="best"/>
    <trip id="232" depart="324.80" from="926757301" to="926757300" type="pedestrian" departSpeed="max" departLane="best"/>